@<TRIPOS>MOLECULE
E4P
20   19    1
SMALL
USER_CHARGES


@<TRIPOS>ATOM
      1 C1         42.0100   47.1960    5.1380 C.3       1 ABC         0.0000 
      2 O4         41.7870   45.9590    5.7090 O.3       1 ABC         0.0000 
      3 P1         43.2220   45.0960    6.1810 P.3       1 ABC         0.0000 
      4 O1         42.9090   44.7150    7.8500 O.3       1 ABC         0.0000 
      5 O2         44.5090   45.7940    5.9110 O.co2     1 ABC         0.0000 
      6 O3         43.0220   43.5580    5.3920 O.co2     1 ABC         0.0000 
      7 C2         42.8390   47.0300    3.8990 C.3       1 ABC         0.0000 
      8 C3         43.0830   48.3740    3.2780 C.3       1 ABC         0.0000 
      9 C4         43.9110   48.2100    2.0390 C.2       1 ABC         0.0000 
     10 O5         45.1390   48.2430    2.0630 O.2       1 ABC         0.0000 
     11 O7         43.7520   49.1820    4.1760 O.3       1 ABC         0.0000 
     12 O6         42.1690   46.2240    3.0020 O.3       1 ABC         0.0000 
     13 H11        42.5396   47.8328    5.8466 H         1 ABC         0.0000 
     14 H12        41.0554   47.6531    4.8776 H         1 ABC         0.0000 
     15 H2         43.7929   46.5707    4.1585 H         1 ABC         0.0000 
     16 H3         42.1287   48.8324    3.0186 H         1 ABC         0.0000 
     17 H4         43.3931   48.0588    1.1034 H         1 ABC         0.0000 
     18 HO7        43.2212   49.2879    4.9689 H         1 ABC         0.0000 
     19 HO6        41.6666   45.5606    3.4806 H         1 ABC         0.0000 
     20 HO1        43.6403   44.2040    8.2046 H         1 ABC         0.0000 
@<TRIPOS>BOND
     1    1    2 1    
     2    1    7 1    
     3    1   13 1    
     4    1   14 1    
     5    2    3 1    
     6    3    4 1    
     7    3    5 2    
     8    3    6 1    
     9    4   20 1    
    10    7    8 1    
    11    7   12 1    
    12    7   15 1    
    13    8    9 1    
    14    8   11 1    
    15    8   16 1    
    16    9   10 2    
    17    9   17 1    
    18   11   18 1    
    19   12   19 1    
@<TRIPOS>SUBSTRUCTURE
     1 ABC         1 GROUP             0       ****    0 ROOT    
