@<TRIPOS>MOLECULE
E4P
21   20    1
SMALL
USER_CHARGES


@<TRIPOS>ATOM
      1 C1          0.1214   -0.1717   -0.1600 C.3       1 ABC         0.1529 
      2 O4         -0.3386    1.1293   -0.1600 O.3       1 ABC        -0.4611 
      3 P1         -2.0705    1.2970   -0.1600 P.3       1 ABC         1.2307 
      4 O1         -2.5173    0.6678    1.3995 O.3       1 ABC        -0.5682 
      5 O2         -2.7747    0.6904   -1.3233 O.2       1 ABC        -0.6661 
      6 O3         -2.2904    3.0114    0.0401 O.3       1 ABC        -0.5682 
      7 C2          1.6214   -0.1717   -0.1600 C.3       1 ABC         0.2050 
      8 C3          2.1214   -1.5859   -0.1600 C.3       1 ABC         0.2050 
      9 C4          1.6214   -2.2931   -1.3848 C.2       1 ABC         0.4500 
     10 O5          2.2521   -2.3016   -2.4395 O.2       1 ABC        -0.4500 
     11 O7          1.6614   -2.2365    0.9668 O.3       1 ABC        -0.6830 
     12 O6          2.0814    0.4788    0.9668 O.3       1 ABC        -0.6830 
     13 H11        -0.2420   -0.6856   -1.0500 H         1 ABC         0.0600 
     14 H12        -0.2420   -0.6856    0.7300 H         1 ABC         0.0600 
     15 H2          1.9847    0.3421   -1.0500 H         1 ABC         0.0600 
     16 H3          3.2114   -1.5859   -0.1600 H         1 ABC         0.0600 
     17 H4          0.6618   -2.7988   -1.2776 H         1 ABC         0.0000 
     18 HO7         1.9477   -3.1910    1.0502 H         1 ABC         0.4180 
     19 HO6         2.6495    1.2822    0.7886 H         1 ABC         0.4180 
     20 HO1        -3.2122   -0.0510    1.3820 H         1 ABC         0.3800 
     21 H21        -2.8738    3.4456   -0.6463 H         1 ABC         0.3800 
@<TRIPOS>BOND
     1    1    2 1    
     2    1    7 1    
     3    1   13 1    
     4    1   14 1    
     5    2    3 1    
     6    3    4 1    
     7    3    5 2    
     8    3    6 1    
     9    4   20 1    
    10    6   21 1    
    11    7    8 1    
    12    7   12 1    
    13    7   15 1    
    14    8    9 1    
    15    8   11 1    
    16    8   16 1    
    17    9   10 2    
    18    9   17 1    
    19   11   18 1    
    20   12   19 1    
@<TRIPOS>SUBSTRUCTURE
     1 ABC         1 GROUP             0       ****    0 ROOT    
@<TRIPOS>MOLECULE
E4P
21   20    1
SMALL
USER_CHARGES


@<TRIPOS>ATOM
      1 C1         -0.0595   -0.9050   -0.4318 C.3       1 ABC         0.1529 
      2 O4         -0.5195    0.3961   -0.4318 O.3       1 ABC        -0.4611 
      3 P1         -2.2514    0.5638   -0.4318 P.3       1 ABC         1.2307 
      4 O1         -2.7316   -0.4105   -1.7912 O.3       1 ABC        -0.5682 
      5 O2         -2.7615    1.9627   -0.4318 O.2       1 ABC        -0.6661 
      6 O3         -2.7316   -0.4105    0.9276 O.3       1 ABC        -0.5682 
      7 C2          1.4405   -0.9050   -0.4318 C.3       1 ABC         0.2050 
      8 C3          1.9405   -0.1979    0.7930 C.3       1 ABC         0.2050 
      9 C4          3.4405   -0.1979    0.7930 C.2       1 ABC         0.4500 
     10 O5          4.0955    0.8420    0.7930 O.2       1 ABC        -0.4500 
     11 O7          1.4805   -0.8484    1.9197 O.3       1 ABC        -0.6830 
     12 O6          1.9005   -0.2544   -1.5586 O.3       1 ABC        -0.6830 
     13 H11        -0.4228   -1.4188   -1.3218 H         1 ABC         0.0600 
     14 H12        -0.4228   -1.4188    0.4582 H         1 ABC         0.0600 
     15 H2          1.8038   -1.9326   -0.4318 H         1 ABC         0.0600 
     16 H3          1.5772    0.8298    0.7930 H         1 ABC         0.0600 
     17 H4          3.9113   -1.1810    0.7930 H         1 ABC         0.0000 
     18 HO7         1.7669   -0.4434    2.7880 H         1 ABC         0.4180 
     19 HO6         1.6141    0.7001   -1.6420 H         1 ABC         0.4180 
     20 HO1        -3.3120    0.0541   -2.4600 H         1 ABC         0.3800 
     21 H21        -3.3120    0.0541    1.5964 H         1 ABC         0.3800 
@<TRIPOS>BOND
     1    1    2 1    
     2    1    7 1    
     3    1   13 1    
     4    1   14 1    
     5    2    3 1    
     6    3    4 1    
     7    3    5 2    
     8    3    6 1    
     9    4   20 1    
    10    6   21 1    
    11    7    8 1    
    12    7   12 1    
    13    7   15 1    
    14    8    9 1    
    15    8   11 1    
    16    8   16 1    
    17    9   10 2    
    18    9   17 1    
    19   11   18 1    
    20   12   19 1    
@<TRIPOS>SUBSTRUCTURE
     1 ABC         1 GROUP             0       ****    0 ROOT    
@<TRIPOS>MOLECULE
E4P
21   20    1
SMALL
USER_CHARGES


@<TRIPOS>ATOM
      1 C1         -0.1505   -0.2871   -0.5284 C.3       1 ABC         0.1529 
      2 O4         -0.6105    1.0140   -0.5284 O.3       1 ABC        -0.4611 
      3 P1         -2.3425    1.1817   -0.5284 P.3       1 ABC         1.2307 
      4 O1         -2.7892    0.5525    1.0311 O.3       1 ABC        -0.5682 
      5 O2         -3.0467    0.5751   -1.6917 O.2       1 ABC        -0.6661 
      6 O3         -2.5624    2.8961   -0.3283 O.3       1 ABC        -0.5682 
      7 C2          1.3495   -0.2871   -0.5284 C.3       1 ABC         0.2050 
      8 C3          1.8495   -1.7013   -0.5284 C.3       1 ABC         0.2050 
      9 C4          1.3495   -2.4084    0.6963 C.2       1 ABC         0.4500 
     10 O5          0.2820   -3.0174    0.7112 O.2       1 ABC        -0.4500 
     11 O7          3.2295   -1.7013   -0.5284 O.3       1 ABC        -0.6830 
     12 O6          1.8095    0.3635    0.5984 O.3       1 ABC        -0.6830 
     13 H11        -0.5139   -0.8009   -1.4184 H         1 ABC         0.0600 
     14 H12        -0.5139   -0.8009    0.3616 H         1 ABC         0.0600 
     15 H2          1.7128    0.2268   -1.4184 H         1 ABC         0.0600 
     16 H3          1.4861   -2.2151   -1.4184 H         1 ABC         0.0600 
     17 H4          1.9952   -2.3465    1.5723 H         1 ABC         0.0000 
     18 HO7         3.6521   -2.6076   -0.5284 H         1 ABC         0.4180 
     19 HO6         2.3776    1.1669    0.4202 H         1 ABC         0.4180 
     20 HO1        -2.3113    0.9657    1.8063 H         1 ABC         0.3800 
     21 H21        -2.0859    3.2946    0.4554 H         1 ABC         0.3800 
@<TRIPOS>BOND
     1    1    2 1    
     2    1    7 1    
     3    1   13 1    
     4    1   14 1    
     5    2    3 1    
     6    3    4 1    
     7    3    5 2    
     8    3    6 1    
     9    4   20 1    
    10    6   21 1    
    11    7    8 1    
    12    7   12 1    
    13    7   15 1    
    14    8    9 1    
    15    8   11 1    
    16    8   16 1    
    17    9   10 2    
    18    9   17 1    
    19   11   18 1    
    20   12   19 1    
@<TRIPOS>SUBSTRUCTURE
     1 ABC         1 GROUP             0       ****    0 ROOT    
@<TRIPOS>MOLECULE
E4P
21   20    1
SMALL
USER_CHARGES


@<TRIPOS>ATOM
      1 C1         -0.2343   -0.6899    0.3058 C.3       1 ABC         0.1529 
      2 O4         -0.6943    0.6112    0.3058 O.3       1 ABC        -0.4611 
      3 P1         -2.4262    0.7788    0.3058 P.3       1 ABC         1.2307 
      4 O1         -2.8729    0.1496    1.8653 O.3       1 ABC        -0.5682 
      5 O2         -3.1304    0.1722   -0.8575 O.2       1 ABC        -0.6661 
      6 O3         -2.6461    2.4932    0.5060 O.3       1 ABC        -0.5682 
      7 C2          1.2657   -0.6899    0.3058 C.3       1 ABC         0.2050 
      8 C3          1.7657    0.0172   -0.9189 C.3       1 ABC         0.2050 
      9 C4          1.2657   -0.6899   -2.1437 C.2       1 ABC         0.4500 
     10 O5          1.5376   -1.8653   -2.3783 O.2       1 ABC        -0.4500 
     11 O7          3.1457    0.0172   -0.9189 O.3       1 ABC        -0.6830 
     12 O6          1.7257   -1.9910    0.3058 O.3       1 ABC        -0.6830 
     13 H11        -0.5976   -1.2037   -0.5842 H         1 ABC         0.0600 
     14 H12        -0.5976   -1.2037    1.1958 H         1 ABC         0.0600 
     15 H2          1.6291   -0.1761    1.1958 H         1 ABC         0.0600 
     16 H3          1.4024    1.0449   -0.9189 H         1 ABC         0.0600 
     17 H4          0.6454   -0.0926   -2.8118 H         1 ABC         0.0000 
     18 HO7         3.5684    0.4703   -1.7038 H         1 ABC         0.4180 
     19 HO6         2.2939   -2.2384    1.0907 H         1 ABC         0.4180 
     20 HO1        -2.3950    0.5628    2.6405 H         1 ABC         0.3800 
     21 H21        -2.1696    2.8918    1.2896 H         1 ABC         0.3800 
@<TRIPOS>BOND
     1    1    2 1    
     2    1    7 1    
     3    1   13 1    
     4    1   14 1    
     5    2    3 1    
     6    3    4 1    
     7    3    5 2    
     8    3    6 1    
     9    4   20 1    
    10    6   21 1    
    11    7    8 1    
    12    7   12 1    
    13    7   15 1    
    14    8    9 1    
    15    8   11 1    
    16    8   16 1    
    17    9   10 2    
    18    9   17 1    
    19   11   18 1    
    20   12   19 1    
@<TRIPOS>SUBSTRUCTURE
     1 ABC         1 GROUP             0       ****    0 ROOT    
@<TRIPOS>MOLECULE
E4P
21   20    1
SMALL
USER_CHARGES


@<TRIPOS>ATOM
      1 C1          0.0519   -0.3188   -0.1268 C.3       1 ABC         0.1529 
      2 O4         -0.4081    0.9823   -0.1268 O.3       1 ABC        -0.4611 
      3 P1         -2.1400    1.1499   -0.1268 P.3       1 ABC         1.2307 
      4 O1         -2.4244    2.1982    1.2326 O.3       1 ABC        -0.5682 
      5 O2         -2.9089   -0.1252   -0.1268 O.2       1 ABC        -0.6661 
      6 O3         -2.4244    2.1982   -1.4862 O.3       1 ABC        -0.5682 
      7 C2          1.5519   -0.3188   -0.1268 C.3       1 ABC         0.2050 
      8 C3          2.0519   -1.7330   -0.1268 C.3       1 ABC         0.2050 
      9 C4          1.5519   -2.4401   -1.3515 C.2       1 ABC         0.4500 
     10 O5          0.8434   -3.4421   -1.2860 O.2       1 ABC        -0.4500 
     11 O7          1.5919   -2.3835    1.0000 O.3       1 ABC        -0.6830 
     12 O6          2.0119    0.3318    1.0000 O.3       1 ABC        -0.6830 
     13 H11        -0.3114   -0.8326   -1.0168 H         1 ABC         0.0600 
     14 H12        -0.3114   -0.8326    0.7632 H         1 ABC         0.0600 
     15 H2          1.9153    0.1951   -1.0168 H         1 ABC         0.0600 
     16 H3          3.1419   -1.7330   -0.1268 H         1 ABC         0.0600 
     17 H4          1.8584   -2.0066   -2.3035 H         1 ABC         0.0000 
     18 HO7         1.8783   -3.3380    1.0834 H         1 ABC         0.4180 
     19 HO6         2.5800    1.1352    0.8218 H         1 ABC         0.4180 
     20 HO1        -1.9038    3.0519    1.2241 H         1 ABC         0.3800 
     21 H21        -1.9038    3.0520   -1.4777 H         1 ABC         0.3800 
@<TRIPOS>BOND
     1    1    2 1    
     2    1    7 1    
     3    1   13 1    
     4    1   14 1    
     5    2    3 1    
     6    3    4 1    
     7    3    5 2    
     8    3    6 1    
     9    4   20 1    
    10    6   21 1    
    11    7    8 1    
    12    7   12 1    
    13    7   15 1    
    14    8    9 1    
    15    8   11 1    
    16    8   16 1    
    17    9   10 2    
    18    9   17 1    
    19   11   18 1    
    20   12   19 1    
@<TRIPOS>SUBSTRUCTURE
     1 ABC         1 GROUP             0       ****    0 ROOT    
@<TRIPOS>MOLECULE
E4P
21   20    1
SMALL
USER_CHARGES


@<TRIPOS>ATOM
      1 C1         -0.0905   -0.8473    0.6116 C.3       1 ABC         0.1529 
      2 O4         -0.5505    0.4538    0.6116 O.3       1 ABC        -0.4611 
      3 P1         -2.2824    0.6214    0.6116 P.3       1 ABC         1.2307 
      4 O1         -2.5668    1.6696    1.9710 O.3       1 ABC        -0.5682 
      5 O2         -3.0513   -0.6537    0.6116 O.2       1 ABC        -0.6661 
      6 O3         -2.5668    1.6696   -0.7478 O.3       1 ABC        -0.5682 
      7 C2          1.4095   -0.8473    0.6116 C.3       1 ABC         0.2050 
      8 C3          1.9095   -0.1402   -0.6132 C.3       1 ABC         0.2050 
      9 C4          1.4095   -0.8473   -1.8379 C.2       1 ABC         0.4500 
     10 O5          0.3421   -0.5557   -2.3727 O.2       1 ABC        -0.4500 
     11 O7          3.2895   -0.1402   -0.6132 O.3       1 ABC        -0.6830 
     12 O6          1.8695   -2.1484    0.6116 O.3       1 ABC        -0.6830 
     13 H11        -0.4538   -1.3611   -0.2784 H         1 ABC         0.0600 
     14 H12        -0.4538   -1.3611    1.5016 H         1 ABC         0.0600 
     15 H2          1.7729   -0.3335    1.5016 H         1 ABC         0.0600 
     16 H3          1.5462    0.8875   -0.6132 H         1 ABC         0.0600 
     17 H4          2.0553   -1.6368   -2.2223 H         1 ABC         0.0000 
     18 HO7         3.7122    0.3130   -1.3980 H         1 ABC         0.4180 
     19 HO6         2.4377   -2.3958    1.3965 H         1 ABC         0.4180 
     20 HO1        -2.0462    2.5234    1.9625 H         1 ABC         0.3800 
     21 H21        -3.2255    1.3251   -1.4166 H         1 ABC         0.3800 
@<TRIPOS>BOND
     1    1    2 1    
     2    1    7 1    
     3    1   13 1    
     4    1   14 1    
     5    2    3 1    
     6    3    4 1    
     7    3    5 2    
     8    3    6 1    
     9    4   20 1    
    10    6   21 1    
    11    7    8 1    
    12    7   12 1    
    13    7   15 1    
    14    8    9 1    
    15    8   11 1    
    16    8   16 1    
    17    9   10 2    
    18    9   17 1    
    19   11   18 1    
    20   12   19 1    
@<TRIPOS>SUBSTRUCTURE
     1 ABC         1 GROUP             0       ****    0 ROOT    
@<TRIPOS>MOLECULE
E4P
21   20    1
SMALL
USER_CHARGES


@<TRIPOS>ATOM
      1 C1         -0.0999   -0.4600    0.5693 C.3       1 ABC         0.1529 
      2 O4         -0.5599    0.8411    0.5693 O.3       1 ABC        -0.4611 
      3 P1         -2.2918    1.0087    0.5693 P.3       1 ABC         1.2307 
      4 O1         -2.7720    0.0345   -0.7901 O.3       1 ABC        -0.5682 
      5 O2         -2.8019    2.4076    0.5693 O.2       1 ABC        -0.6661 
      6 O3         -2.7720    0.0345    1.9286 O.3       1 ABC        -0.5682 
      7 C2          1.4001   -0.4600    0.5693 C.3       1 ABC         0.2050 
      8 C3          1.9001    0.2471   -0.6555 C.3       1 ABC         0.2050 
      9 C4          1.4001   -0.4600   -1.8802 C.2       1 ABC         0.4500 
     10 O5          2.0308   -1.3692   -2.4151 O.2       1 ABC        -0.4500 
     11 O7          3.2801    0.2471   -0.6555 O.3       1 ABC        -0.6830 
     12 O6          1.8601   -1.7611    0.5693 O.3       1 ABC        -0.6830 
     13 H11        -0.4632   -0.9738   -0.3207 H         1 ABC         0.0600 
     14 H12        -0.4632   -0.9738    1.4592 H         1 ABC         0.0600 
     15 H2          1.7634    0.0538    1.4592 H         1 ABC         0.0600 
     16 H3          1.5368    1.2748   -0.6555 H         1 ABC         0.0600 
     17 H4          0.4405   -0.1143   -2.2646 H         1 ABC         0.0000 
     18 HO7         3.7027    0.7002   -1.4404 H         1 ABC         0.4180 
     19 HO6         2.4282   -2.0085    1.3541 H         1 ABC         0.4180 
     20 HO1        -3.3524    0.4990   -1.4590 H         1 ABC         0.3800 
     21 H21        -3.3524    0.4990    2.5975 H         1 ABC         0.3800 
@<TRIPOS>BOND
     1    1    2 1    
     2    1    7 1    
     3    1   13 1    
     4    1   14 1    
     5    2    3 1    
     6    3    4 1    
     7    3    5 2    
     8    3    6 1    
     9    4   20 1    
    10    6   21 1    
    11    7    8 1    
    12    7   12 1    
    13    7   15 1    
    14    8    9 1    
    15    8   11 1    
    16    8   16 1    
    17    9   10 2    
    18    9   17 1    
    19   11   18 1    
    20   12   19 1    
@<TRIPOS>SUBSTRUCTURE
     1 ABC         1 GROUP             0       ****    0 ROOT    
@<TRIPOS>MOLECULE
E4P
21   20    1
SMALL
USER_CHARGES


@<TRIPOS>ATOM
      1 C1         -0.3399   -1.0909   -0.9334 C.3       1 ABC         0.1529 
      2 O4         -0.7999    0.2102   -0.9334 O.3       1 ABC        -0.4611 
      3 P1         -1.7884    0.6407    0.4323 P.3       1 ABC         1.2307 
      4 O1         -2.3434    2.2366    0.0169 O.3       1 ABC        -0.5682 
      5 O2         -1.1345    0.5143    1.7641 O.2       1 ABC        -0.6661 
      6 O3         -3.2111   -0.3335    0.1990 O.3       1 ABC        -0.5682 
      7 C2          1.1601   -1.0909   -0.9334 C.3       1 ABC         0.2050 
      8 C3          1.6601   -0.3838    0.2914 C.3       1 ABC         0.2050 
      9 C4          3.1601   -0.3838    0.2914 C.2       1 ABC         0.4500 
     10 O5          3.8151   -1.4237    0.2914 O.2       1 ABC        -0.4500 
     11 O7          1.2001   -1.0343    1.4181 O.3       1 ABC        -0.6830 
     12 O6          1.6201   -0.4403   -2.0601 O.3       1 ABC        -0.6830 
     13 H11        -0.7032   -1.6047   -1.8234 H         1 ABC         0.0600 
     14 H12        -0.7032   -1.6047   -0.0434 H         1 ABC         0.0600 
     15 H2          1.5234   -2.1185   -0.9334 H         1 ABC         0.0600 
     16 H3          1.2968    0.6439    0.2914 H         1 ABC         0.0600 
     17 H4          3.6309    0.5993    0.2914 H         1 ABC         0.0000 
     18 HO7         1.4865   -0.6293    2.2865 H         1 ABC         0.4180 
     19 HO6         1.3337    0.5142   -2.1436 H         1 ABC         0.4180 
     20 HO1        -2.1752    2.9365    0.7110 H         1 ABC         0.3800 
     21 H21        -3.6434   -0.2421   -0.6981 H         1 ABC         0.3800 
@<TRIPOS>BOND
     1    1    2 1    
     2    1    7 1    
     3    1   13 1    
     4    1   14 1    
     5    2    3 1    
     6    3    4 1    
     7    3    5 2    
     8    3    6 1    
     9    4   20 1    
    10    6   21 1    
    11    7    8 1    
    12    7   12 1    
    13    7   15 1    
    14    8    9 1    
    15    8   11 1    
    16    8   16 1    
    17    9   10 2    
    18    9   17 1    
    19   11   18 1    
    20   12   19 1    
@<TRIPOS>SUBSTRUCTURE
     1 ABC         1 GROUP             0       ****    0 ROOT    
@<TRIPOS>MOLECULE
E4P
21   20    1
SMALL
USER_CHARGES


@<TRIPOS>ATOM
      1 C1         -0.2988   -0.3528    0.6582 C.3       1 ABC         0.1529 
      2 O4         -0.7588    0.9483    0.6582 O.3       1 ABC        -0.4611 
      3 P1         -1.7473    1.3788   -0.7075 P.3       1 ABC         1.2307 
      4 O1         -1.9755    3.0902   -0.4923 O.3       1 ABC        -0.5682 
      5 O2         -2.9931    0.5807   -0.8760 O.2       1 ABC        -0.6661 
      6 O3         -0.6233    1.3049   -2.0337 O.3       1 ABC        -0.5682 
      7 C2          1.2012   -0.3528    0.6582 C.3       1 ABC         0.2050 
      8 C3          1.7012   -1.7670    0.6582 C.3       1 ABC         0.2050 
      9 C4          1.2012   -2.4741   -0.5666 C.2       1 ABC         0.4500 
     10 O5          1.4731   -2.0896   -1.7018 O.2       1 ABC        -0.4500 
     11 O7          1.2412   -2.4175    1.7849 O.3       1 ABC        -0.6830 
     12 O6          1.6612    0.2977    1.7849 O.3       1 ABC        -0.6830 
     13 H11        -0.6621   -0.8666   -0.2318 H         1 ABC         0.0600 
     14 H12        -0.6621   -0.8666    1.5482 H         1 ABC         0.0600 
     15 H2          1.5645    0.1610   -0.2318 H         1 ABC         0.0600 
     16 H3          2.7912   -1.7670    0.6582 H         1 ABC         0.0600 
     17 H4          0.5808   -3.3514   -0.3834 H         1 ABC         0.0000 
     18 HO7         1.5275   -3.3720    1.8684 H         1 ABC         0.4180 
     19 HO6         2.2293    1.1012    1.6067 H         1 ABC         0.4180 
     20 HO1        -2.9282    3.3939   -0.5000 H         1 ABC         0.3800 
     21 H21        -0.9108    0.7302   -2.7999 H         1 ABC         0.3800 
@<TRIPOS>BOND
     1    1    2 1    
     2    1    7 1    
     3    1   13 1    
     4    1   14 1    
     5    2    3 1    
     6    3    4 1    
     7    3    5 2    
     8    3    6 1    
     9    4   20 1    
    10    6   21 1    
    11    7    8 1    
    12    7   12 1    
    13    7   15 1    
    14    8    9 1    
    15    8   11 1    
    16    8   16 1    
    17    9   10 2    
    18    9   17 1    
    19   11   18 1    
    20   12   19 1    
@<TRIPOS>SUBSTRUCTURE
     1 ABC         1 GROUP             0       ****    0 ROOT    
@<TRIPOS>MOLECULE
E4P
21   20    1
SMALL
USER_CHARGES


@<TRIPOS>ATOM
      1 C1         -0.0370   -0.2772   -0.3068 C.3       1 ABC         0.1529 
      2 O4         -0.4970    1.0238   -0.3068 O.3       1 ABC        -0.4611 
      3 P1         -2.2290    1.1915   -0.3068 P.3       1 ABC         1.2307 
      4 O1         -2.5133    2.2397    1.0526 O.3       1 ABC        -0.5682 
      5 O2         -2.9979   -0.0836   -0.3068 O.2       1 ABC        -0.6661 
      6 O3         -2.5133    2.2397   -1.6662 O.3       1 ABC        -0.5682 
      7 C2          1.4630   -0.2772   -0.3068 C.3       1 ABC         0.2050 
      8 C3          1.9630   -1.6915   -0.3068 C.3       1 ABC         0.2050 
      9 C4          1.4630   -2.3986    0.9179 C.2       1 ABC         0.4500 
     10 O5          0.3955   -3.0075    0.9328 O.2       1 ABC        -0.4500 
     11 O7          3.3430   -1.6915   -0.3068 O.3       1 ABC        -0.6830 
     12 O6          1.9230    0.3733    0.8200 O.3       1 ABC        -0.6830 
     13 H11        -0.4004   -0.7911   -1.1968 H         1 ABC         0.0600 
     14 H12        -0.4004   -0.7911    0.5832 H         1 ABC         0.0600 
     15 H2          1.8263    0.2366   -1.1968 H         1 ABC         0.0600 
     16 H3          1.5996   -2.2053   -1.1968 H         1 ABC         0.0600 
     17 H4          2.1087   -2.3367    1.7939 H         1 ABC         0.0000 
     18 HO7         3.7656   -2.5978   -0.3068 H         1 ABC         0.4180 
     19 HO6         1.6366   -0.0317    1.6883 H         1 ABC         0.4180 
     20 HO1        -1.9928    3.0935    1.0441 H         1 ABC         0.3800 
     21 H21        -3.1721    1.8951   -2.3350 H         1 ABC         0.3800 
@<TRIPOS>BOND
     1    1    2 1    
     2    1    7 1    
     3    1   13 1    
     4    1   14 1    
     5    2    3 1    
     6    3    4 1    
     7    3    5 2    
     8    3    6 1    
     9    4   20 1    
    10    6   21 1    
    11    7    8 1    
    12    7   12 1    
    13    7   15 1    
    14    8    9 1    
    15    8   11 1    
    16    8   16 1    
    17    9   10 2    
    18    9   17 1    
    19   11   18 1    
    20   12   19 1    
@<TRIPOS>SUBSTRUCTURE
     1 ABC         1 GROUP             0       ****    0 ROOT    
@<TRIPOS>MOLECULE
E4P
21   20    1
SMALL
USER_CHARGES


@<TRIPOS>ATOM
      1 C1          0.2218   -1.1657   -0.4395 C.3       1 ABC         0.1529 
      2 O4         -0.2382    0.1353   -0.4395 O.3       1 ABC        -0.4611 
      3 P1         -1.9701    0.3030   -0.4395 P.3       1 ABC         1.2307 
      4 O1         -2.2545    1.3512    0.9198 O.3       1 ABC        -0.5682 
      5 O2         -2.7390   -0.9721   -0.4395 O.2       1 ABC        -0.6661 
      6 O3         -2.2545    1.3512   -1.7989 O.3       1 ABC        -0.5682 
      7 C2          1.7218   -1.1657   -0.4395 C.3       1 ABC         0.2050 
      8 C3          2.2218   -0.4586    0.7852 C.3       1 ABC         0.2050 
      9 C4          1.7218   -1.1657    2.0099 C.2       1 ABC         0.4500 
     10 O5          0.6544   -0.8741    2.5448 O.2       1 ABC        -0.4500 
     11 O7          1.7618    0.8425    0.7852 O.3       1 ABC        -0.6830 
     12 O6          2.1818   -0.5152   -1.5663 O.3       1 ABC        -0.6830 
     13 H11        -0.1416   -1.6796   -1.3295 H         1 ABC         0.0600 
     14 H12        -0.1416   -1.6796    0.4504 H         1 ABC         0.0600 
     15 H2          2.0851   -2.1934   -0.4395 H         1 ABC         0.0600 
     16 H3          3.3118   -0.4586    0.7852 H         1 ABC         0.0600 
     17 H4          2.3675   -1.9552    2.3943 H         1 ABC         0.0000 
     18 HO7         2.0481    1.3920    1.5701 H         1 ABC         0.4180 
     19 HO6         2.7499   -1.0712   -2.1730 H         1 ABC         0.4180 
     20 HO1        -2.9133    1.0066    1.5887 H         1 ABC         0.3800 
     21 H21        -2.9133    1.0066   -2.4678 H         1 ABC         0.3800 
@<TRIPOS>BOND
     1    1    2 1    
     2    1    7 1    
     3    1   13 1    
     4    1   14 1    
     5    2    3 1    
     6    3    4 1    
     7    3    5 2    
     8    3    6 1    
     9    4   20 1    
    10    6   21 1    
    11    7    8 1    
    12    7   12 1    
    13    7   15 1    
    14    8    9 1    
    15    8   11 1    
    16    8   16 1    
    17    9   10 2    
    18    9   17 1    
    19   11   18 1    
    20   12   19 1    
@<TRIPOS>SUBSTRUCTURE
     1 ABC         1 GROUP             0       ****    0 ROOT    
@<TRIPOS>MOLECULE
E4P
21   20    1
SMALL
USER_CHARGES


@<TRIPOS>ATOM
      1 C1         -0.3913   -1.2574    0.2148 C.3       1 ABC         0.1529 
      2 O4         -0.8513    0.0436    0.2148 O.3       1 ABC        -0.4611 
      3 P1         -1.8398    0.4741   -1.1509 P.3       1 ABC         1.2307 
      4 O1         -2.0680    2.1856   -0.9356 O.3       1 ABC        -0.5682 
      5 O2         -3.0855   -0.3240   -1.3193 O.2       1 ABC        -0.6661 
      6 O3         -0.7158    0.4003   -2.4770 O.3       1 ABC        -0.5682 
      7 C2          1.1087   -1.2574    0.2148 C.3       1 ABC         0.2050 
      8 C3          1.6087   -0.5503    1.4396 C.3       1 ABC         0.2050 
      9 C4          1.1087   -1.2574    2.6643 C.2       1 ABC         0.4500 
     10 O5          1.7394   -2.1666    3.1992 O.2       1 ABC        -0.4500 
     11 O7          1.1487    0.7507    1.4396 O.3       1 ABC        -0.6830 
     12 O6          1.5687   -0.6069   -0.9119 O.3       1 ABC        -0.6830 
     13 H11        -0.7546   -1.7713   -0.6751 H         1 ABC         0.0600 
     14 H12        -0.7546   -1.7713    1.1048 H         1 ABC         0.0600 
     15 H2          1.4720   -2.2851    0.2148 H         1 ABC         0.0600 
     16 H3          2.6987   -0.5503    1.4396 H         1 ABC         0.0600 
     17 H4          0.1491   -0.9118    3.0487 H         1 ABC         0.0000 
     18 HO7         1.4351    1.3002    2.2245 H         1 ABC         0.4180 
     19 HO6         2.1368   -1.1629   -1.5186 H         1 ABC         0.4180 
     20 HO1        -3.0207    2.4892   -0.9433 H         1 ABC         0.3800 
     21 H21         0.1177    0.9392   -2.3551 H         1 ABC         0.3800 
@<TRIPOS>BOND
     1    1    2 1    
     2    1    7 1    
     3    1   13 1    
     4    1   14 1    
     5    2    3 1    
     6    3    4 1    
     7    3    5 2    
     8    3    6 1    
     9    4   20 1    
    10    6   21 1    
    11    7    8 1    
    12    7   12 1    
    13    7   15 1    
    14    8    9 1    
    15    8   11 1    
    16    8   16 1    
    17    9   10 2    
    18    9   17 1    
    19   11   18 1    
    20   12   19 1    
@<TRIPOS>SUBSTRUCTURE
     1 ABC         1 GROUP             0       ****    0 ROOT    
@<TRIPOS>MOLECULE
E4P
21   20    1
SMALL
USER_CHARGES


@<TRIPOS>ATOM
      1 C1         -0.1005   -1.2934   -0.1967 C.3       1 ABC         0.1529 
      2 O4         -0.5605    0.0076   -0.1967 O.3       1 ABC        -0.4611 
      3 P1         -2.2924    0.1753   -0.1967 P.3       1 ABC         1.2307 
      4 O1         -2.5768    1.2235    1.1627 O.3       1 ABC        -0.5682 
      5 O2         -3.0613   -1.0998   -0.1967 O.2       1 ABC        -0.6661 
      6 O3         -2.5768    1.2235   -1.5561 O.3       1 ABC        -0.5682 
      7 C2          1.3995   -1.2934   -0.1967 C.3       1 ABC         0.2050 
      8 C3          1.8995   -0.5863    1.0280 C.3       1 ABC         0.2050 
      9 C4          1.3995    0.8279    1.0280 C.2       1 ABC         0.4500 
     10 O5          1.6714    1.6188    0.1274 O.2       1 ABC        -0.4500 
     11 O7          3.2795   -0.5863    1.0280 O.3       1 ABC        -0.6830 
     12 O6          1.8595   -0.6429   -1.3235 O.3       1 ABC        -0.6830 
     13 H11        -0.4638   -1.8073   -1.0867 H         1 ABC         0.0600 
     14 H12        -0.4638   -1.8073    0.6932 H         1 ABC         0.0600 
     15 H2          1.7629   -2.3211   -0.1967 H         1 ABC         0.0600 
     16 H3          1.5362   -1.1002    1.9180 H         1 ABC         0.0600 
     17 H4          0.7792    1.1079    1.8794 H         1 ABC         0.0000 
     18 HO7         3.7022   -0.1332    1.8129 H         1 ABC         0.4180 
     19 HO6         2.4277   -1.1989   -1.9302 H         1 ABC         0.4180 
     20 HO1        -3.2355    0.8789    1.8315 H         1 ABC         0.3800 
     21 H21        -3.2355    0.8789   -2.2250 H         1 ABC         0.3800 
@<TRIPOS>BOND
     1    1    2 1    
     2    1    7 1    
     3    1   13 1    
     4    1   14 1    
     5    2    3 1    
     6    3    4 1    
     7    3    5 2    
     8    3    6 1    
     9    4   20 1    
    10    6   21 1    
    11    7    8 1    
    12    7   12 1    
    13    7   15 1    
    14    8    9 1    
    15    8   11 1    
    16    8   16 1    
    17    9   10 2    
    18    9   17 1    
    19   11   18 1    
    20   12   19 1    
@<TRIPOS>SUBSTRUCTURE
     1 ABC         1 GROUP             0       ****    0 ROOT    
@<TRIPOS>MOLECULE
E4P
21   20    1
SMALL
USER_CHARGES


@<TRIPOS>ATOM
      1 C1          0.0481   -1.0038    0.3435 C.3       1 ABC         0.1529 
      2 O4         -0.4119    0.2973    0.3435 O.3       1 ABC        -0.4611 
      3 P1         -2.1438    0.4649    0.3435 P.3       1 ABC         1.2307 
      4 O1         -2.5906   -0.1643    1.9030 O.3       1 ABC        -0.5682 
      5 O2         -2.8480   -0.1417   -0.8198 O.2       1 ABC        -0.6661 
      6 O3         -2.3637    2.1793    0.5436 O.3       1 ABC        -0.5682 
      7 C2          1.5481   -1.0038    0.3435 C.3       1 ABC         0.2050 
      8 C3          2.0481   -0.2967   -0.8812 C.3       1 ABC         0.2050 
      9 C4          1.5481    1.1175   -0.8812 C.2       1 ABC         0.4500 
     10 O5          2.1788    2.0353   -0.3613 O.2       1 ABC        -0.4500 
     11 O7          1.5881   -0.9472   -2.0080 O.3       1 ABC        -0.6830 
     12 O6          2.0081   -2.3049    0.3435 O.3       1 ABC        -0.6830 
     13 H11        -0.3153   -1.5176   -0.5465 H         1 ABC         0.0600 
     14 H12        -0.3153   -1.5176    1.2335 H         1 ABC         0.0600 
     15 H2          1.9114   -0.4900    1.2335 H         1 ABC         0.0600 
     16 H3          3.1381   -0.2967   -0.8812 H         1 ABC         0.0600 
     17 H4          0.5885    1.2776   -1.3728 H         1 ABC         0.0000 
     18 HO7         1.8744   -0.5422   -2.8763 H         1 ABC         0.4180 
     19 HO6         2.5762   -2.5523    1.1284 H         1 ABC         0.4180 
     20 HO1        -2.1127    0.2490    2.6782 H         1 ABC         0.3800 
     21 H21        -2.9471    2.6136   -0.1428 H         1 ABC         0.3800 
@<TRIPOS>BOND
     1    1    2 1    
     2    1    7 1    
     3    1   13 1    
     4    1   14 1    
     5    2    3 1    
     6    3    4 1    
     7    3    5 2    
     8    3    6 1    
     9    4   20 1    
    10    6   21 1    
    11    7    8 1    
    12    7   12 1    
    13    7   15 1    
    14    8    9 1    
    15    8   11 1    
    16    8   16 1    
    17    9   10 2    
    18    9   17 1    
    19   11   18 1    
    20   12   19 1    
@<TRIPOS>SUBSTRUCTURE
     1 ABC         1 GROUP             0       ****    0 ROOT    
@<TRIPOS>MOLECULE
E4P
21   20    1
SMALL
USER_CHARGES


@<TRIPOS>ATOM
      1 C1         -0.1430   -0.3203    0.1879 C.3       1 ABC         0.1529 
      2 O4         -0.6030    0.9807    0.1879 O.3       1 ABC        -0.4611 
      3 P1         -2.3349    1.1484    0.1879 P.3       1 ABC         1.2307 
      4 O1         -2.5548    2.8628   -0.0122 O.3       1 ABC        -0.5682 
      5 O2         -3.0391    0.5418    1.3512 O.2       1 ABC        -0.6661 
      6 O3         -2.7816    0.5192   -1.3716 O.3       1 ABC        -0.5682 
      7 C2          1.3570   -0.3203    0.1879 C.3       1 ABC         0.2050 
      8 C3          1.8570   -1.7346    0.1879 C.3       1 ABC         0.2050 
      9 C4          3.3570   -1.7346    0.1879 C.2       1 ABC         0.4500 
     10 O5          4.0120   -2.2545    1.0885 O.2       1 ABC        -0.4500 
     11 O7          1.3970   -2.3851   -0.9389 O.3       1 ABC        -0.6830 
     12 O6          1.8170    0.3302    1.3147 O.3       1 ABC        -0.6830 
     13 H11        -0.5063   -0.8342   -0.7021 H         1 ABC         0.0600 
     14 H12        -0.5063   -0.8342    1.0779 H         1 ABC         0.0600 
     15 H2          1.7204    0.1935   -0.7021 H         1 ABC         0.0600 
     16 H3          1.4937   -2.2484    1.0779 H         1 ABC         0.0600 
     17 H4          3.8278   -1.2430   -0.6635 H         1 ABC         0.0000 
     18 HO7         0.8289   -1.8291   -1.5456 H         1 ABC         0.4180 
     19 HO6         2.3851    1.1336    1.1365 H         1 ABC         0.4180 
     20 HO1        -2.0783    3.2614   -0.7959 H         1 ABC         0.3800 
     21 H21        -3.4766   -0.1996   -1.3541 H         1 ABC         0.3800 
@<TRIPOS>BOND
     1    1    2 1    
     2    1    7 1    
     3    1   13 1    
     4    1   14 1    
     5    2    3 1    
     6    3    4 1    
     7    3    5 2    
     8    3    6 1    
     9    4   20 1    
    10    6   21 1    
    11    7    8 1    
    12    7   12 1    
    13    7   15 1    
    14    8    9 1    
    15    8   11 1    
    16    8   16 1    
    17    9   10 2    
    18    9   17 1    
    19   11   18 1    
    20   12   19 1    
@<TRIPOS>SUBSTRUCTURE
     1 ABC         1 GROUP             0       ****    0 ROOT    
@<TRIPOS>MOLECULE
E4P
21   20    1
SMALL
USER_CHARGES


@<TRIPOS>ATOM
      1 C1         -0.2163   -0.3911    0.2374 C.3       1 ABC         0.1529 
      2 O4         -0.6763    0.9100    0.2374 O.3       1 ABC        -0.4611 
      3 P1         -2.4082    1.0776    0.2374 P.3       1 ABC         1.2307 
      4 O1         -2.6281    2.7920    0.0373 O.3       1 ABC        -0.5682 
      5 O2         -3.1124    0.4710    1.4007 O.2       1 ABC        -0.6661 
      6 O3         -2.8549    0.4485   -1.3221 O.3       1 ABC        -0.5682 
      7 C2          1.2837   -0.3911    0.2374 C.3       1 ABC         0.2050 
      8 C3          1.7837   -1.8053    0.2374 C.3       1 ABC         0.2050 
      9 C4          3.2837   -1.8053    0.2374 C.2       1 ABC         0.4500 
     10 O5          3.9387   -2.3253    1.1380 O.2       1 ABC        -0.4500 
     11 O7          1.3237   -2.4558   -0.8893 O.3       1 ABC        -0.6830 
     12 O6          1.7437    0.2594    1.3642 O.3       1 ABC        -0.6830 
     13 H11        -0.5796   -0.9049   -0.6525 H         1 ABC         0.0600 
     14 H12        -0.5796   -0.9049    1.1274 H         1 ABC         0.0600 
     15 H2          1.6471    0.1227   -0.6525 H         1 ABC         0.0600 
     16 H3          1.4204   -2.3191    1.1274 H         1 ABC         0.0600 
     17 H4          3.7545   -1.3138   -0.6139 H         1 ABC         0.0000 
     18 HO7         0.7556   -1.8998   -1.4960 H         1 ABC         0.4180 
     19 HO6         2.3118    1.0629    1.1860 H         1 ABC         0.4180 
     20 HO1        -2.1516    3.1906   -0.7463 H         1 ABC         0.3800 
     21 H21        -2.3770    0.8617   -2.0972 H         1 ABC         0.3800 
@<TRIPOS>BOND
     1    1    2 1    
     2    1    7 1    
     3    1   13 1    
     4    1   14 1    
     5    2    3 1    
     6    3    4 1    
     7    3    5 2    
     8    3    6 1    
     9    4   20 1    
    10    6   21 1    
    11    7    8 1    
    12    7   12 1    
    13    7   15 1    
    14    8    9 1    
    15    8   11 1    
    16    8   16 1    
    17    9   10 2    
    18    9   17 1    
    19   11   18 1    
    20   12   19 1    
@<TRIPOS>SUBSTRUCTURE
     1 ABC         1 GROUP             0       ****    0 ROOT    
@<TRIPOS>MOLECULE
E4P
21   20    1
SMALL
USER_CHARGES


@<TRIPOS>ATOM
      1 C1          0.1972   -0.0233   -0.0702 C.3       1 ABC         0.1529 
      2 O4         -0.2628    1.2778   -0.0702 O.3       1 ABC        -0.4611 
      3 P1         -1.9947    1.4454   -0.0702 P.3       1 ABC         1.2307 
      4 O1         -2.2146    3.1598   -0.2703 O.3       1 ABC        -0.5682 
      5 O2         -2.6989    0.8388    1.0931 O.2       1 ABC        -0.6661 
      6 O3         -2.4415    0.8163   -1.6297 O.3       1 ABC        -0.5682 
      7 C2          1.6972   -0.0233   -0.0702 C.3       1 ABC         0.2050 
      8 C3          2.1972   -1.4375   -0.0702 C.3       1 ABC         0.2050 
      9 C4          1.6972   -2.1446   -1.2949 C.2       1 ABC         0.4500 
     10 O5          1.9691   -3.3200   -1.5295 O.2       1 ABC        -0.4500 
     11 O7          1.7372   -2.0880    1.0566 O.3       1 ABC        -0.6830 
     12 O6          2.1572    0.6273    1.0566 O.3       1 ABC        -0.6830 
     13 H11        -0.1661   -0.5371   -0.9601 H         1 ABC         0.0600 
     14 H12        -0.1661   -0.5371    0.8198 H         1 ABC         0.0600 
     15 H2          2.0605    0.4905   -0.9601 H         1 ABC         0.0600 
     16 H3          3.2872   -1.4375   -0.0702 H         1 ABC         0.0600 
     17 H4          1.0769   -1.5473   -1.9631 H         1 ABC         0.0000 
     18 HO7         2.0236   -3.0425    1.1400 H         1 ABC         0.4180 
     19 HO6         1.8708    0.2223    1.9249 H         1 ABC         0.4180 
     20 HO1        -2.7979    3.5941    0.4161 H         1 ABC         0.3800 
     21 H21        -3.1364    0.0974   -1.6121 H         1 ABC         0.3800 
@<TRIPOS>BOND
     1    1    2 1    
     2    1    7 1    
     3    1   13 1    
     4    1   14 1    
     5    2    3 1    
     6    3    4 1    
     7    3    5 2    
     8    3    6 1    
     9    4   20 1    
    10    6   21 1    
    11    7    8 1    
    12    7   12 1    
    13    7   15 1    
    14    8    9 1    
    15    8   11 1    
    16    8   16 1    
    17    9   10 2    
    18    9   17 1    
    19   11   18 1    
    20   12   19 1    
@<TRIPOS>SUBSTRUCTURE
     1 ABC         1 GROUP             0       ****    0 ROOT    
@<TRIPOS>MOLECULE
E4P
21   20    1
SMALL
USER_CHARGES


@<TRIPOS>ATOM
      1 C1         -0.1303   -1.2210   -0.1229 C.3       1 ABC         0.1529 
      2 O4         -0.5903    0.0800   -0.1229 O.3       1 ABC        -0.4611 
      3 P1         -2.3222    0.2477   -0.1229 P.3       1 ABC         1.2307 
      4 O1         -2.5421    1.9621   -0.3230 O.3       1 ABC        -0.5682 
      5 O2         -3.0264   -0.3589    1.0404 O.2       1 ABC        -0.6661 
      6 O3         -2.7690   -0.3815   -1.6824 O.3       1 ABC        -0.5682 
      7 C2          1.3697   -1.2210   -0.1229 C.3       1 ABC         0.2050 
      8 C3          1.8697   -0.5139    1.1019 C.3       1 ABC         0.2050 
      9 C4          1.3697    0.9003    1.1019 C.2       1 ABC         0.4500 
     10 O5          1.1514    1.5178    2.1418 O.2       1 ABC        -0.4500 
     11 O7          3.2497   -0.5139    1.1019 O.3       1 ABC        -0.6830 
     12 O6          1.8297   -0.5705   -1.2496 O.3       1 ABC        -0.6830 
     13 H11        -0.4936   -1.7349   -1.0129 H         1 ABC         0.0600 
     14 H12        -0.4936   -1.7349    0.7671 H         1 ABC         0.0600 
     15 H2          1.7330   -2.2487   -0.1229 H         1 ABC         0.0600 
     16 H3          1.5064   -1.0278    1.9918 H         1 ABC         0.0600 
     17 H4          1.2128    1.3441    0.1188 H         1 ABC         0.0000 
     18 HO7         3.6723   -0.0608    1.8867 H         1 ABC         0.4180 
     19 HO6         2.3978   -1.1265   -1.8563 H         1 ABC         0.4180 
     20 HO1        -2.0656    2.3606   -1.1067 H         1 ABC         0.3800 
     21 H21        -3.4639   -1.1003   -1.6648 H         1 ABC         0.3800 
@<TRIPOS>BOND
     1    1    2 1    
     2    1    7 1    
     3    1   13 1    
     4    1   14 1    
     5    2    3 1    
     6    3    4 1    
     7    3    5 2    
     8    3    6 1    
     9    4   20 1    
    10    6   21 1    
    11    7    8 1    
    12    7   12 1    
    13    7   15 1    
    14    8    9 1    
    15    8   11 1    
    16    8   16 1    
    17    9   10 2    
    18    9   17 1    
    19   11   18 1    
    20   12   19 1    
@<TRIPOS>SUBSTRUCTURE
     1 ABC         1 GROUP             0       ****    0 ROOT    
@<TRIPOS>MOLECULE
E4P
21   20    1
SMALL
USER_CHARGES


@<TRIPOS>ATOM
      1 C1         -0.3689   -0.3249    0.5464 C.3       1 ABC         0.1529 
      2 O4         -0.8289    0.9762    0.5464 O.3       1 ABC        -0.4611 
      3 P1         -1.8174    1.4066   -0.8193 P.3       1 ABC         1.2307 
      4 O1         -2.0455    3.1181   -0.6040 O.3       1 ABC        -0.5682 
      5 O2         -3.0631    0.6086   -0.9878 O.2       1 ABC        -0.6661 
      6 O3         -0.6934    1.3328   -2.1455 O.3       1 ABC        -0.5682 
      7 C2          1.1311   -0.3249    0.5464 C.3       1 ABC         0.2050 
      8 C3          1.6311   -1.7391    0.5464 C.3       1 ABC         0.2050 
      9 C4          1.1311   -2.4462   -0.6784 C.2       1 ABC         0.4500 
     10 O5          1.4030   -3.6216   -0.9130 O.2       1 ABC        -0.4500 
     11 O7          1.1711   -2.3897    1.6731 O.3       1 ABC        -0.6830 
     12 O6          1.5911    0.3256    1.6731 O.3       1 ABC        -0.6830 
     13 H11        -0.7322   -0.8387   -0.3436 H         1 ABC         0.0600 
     14 H12        -0.7322   -0.8387    1.4364 H         1 ABC         0.0600 
     15 H2          1.4945    0.1889   -0.3436 H         1 ABC         0.0600 
     16 H3          2.7211   -1.7391    0.5464 H         1 ABC         0.0600 
     17 H4          0.5108   -1.8489   -1.3465 H         1 ABC         0.0000 
     18 HO7         1.4575   -3.3441    1.7566 H         1 ABC         0.4180 
     19 HO6         2.1592    1.1291    1.4950 H         1 ABC         0.4180 
     20 HO1        -2.9983    3.4218   -0.6118 H         1 ABC         0.3800 
     21 H21         0.1401    1.8717   -2.0236 H         1 ABC         0.3800 
@<TRIPOS>BOND
     1    1    2 1    
     2    1    7 1    
     3    1   13 1    
     4    1   14 1    
     5    2    3 1    
     6    3    4 1    
     7    3    5 2    
     8    3    6 1    
     9    4   20 1    
    10    6   21 1    
    11    7    8 1    
    12    7   12 1    
    13    7   15 1    
    14    8    9 1    
    15    8   11 1    
    16    8   16 1    
    17    9   10 2    
    18    9   17 1    
    19   11   18 1    
    20   12   19 1    
@<TRIPOS>SUBSTRUCTURE
     1 ABC         1 GROUP             0       ****    0 ROOT    
@<TRIPOS>MOLECULE
E4P
21   20    1
SMALL
USER_CHARGES


@<TRIPOS>ATOM
      1 C1         -0.0719   -0.6458    0.5829 C.3       1 ABC         0.1529 
      2 O4         -0.5319    0.6552    0.5829 O.3       1 ABC        -0.4611 
      3 P1         -2.2638    0.8229    0.5829 P.3       1 ABC         1.2307 
      4 O1         -2.7106    0.1937    2.1424 O.3       1 ABC        -0.5682 
      5 O2         -2.9681    0.2163   -0.5804 O.2       1 ABC        -0.6661 
      6 O3         -2.4838    2.5373    0.7830 O.3       1 ABC        -0.5682 
      7 C2          1.4281   -0.6458    0.5829 C.3       1 ABC         0.2050 
      8 C3          1.9281    0.0613   -0.6419 C.3       1 ABC         0.2050 
      9 C4          1.4281   -0.6458   -1.8666 C.2       1 ABC         0.4500 
     10 O5          2.1901   -1.1279   -2.7016 O.2       1 ABC        -0.4500 
     11 O7          3.3081    0.0613   -0.6419 O.3       1 ABC        -0.6830 
     12 O6          1.8881   -1.9469    0.5829 O.3       1 ABC        -0.6830 
     13 H11        -0.4353   -1.1597   -0.3071 H         1 ABC         0.0600 
     14 H12        -0.4353   -1.1597    1.4729 H         1 ABC         0.0600 
     15 H2          1.7914   -0.1320    1.4729 H         1 ABC         0.0600 
     16 H3          1.5647    1.0889   -0.6419 H         1 ABC         0.0600 
     17 H4          0.3443   -0.7039   -1.9672 H         1 ABC         0.0000 
     18 HO7         3.7307    0.5144   -1.4268 H         1 ABC         0.4180 
     19 HO6         1.6017   -2.4964   -0.2020 H         1 ABC         0.4180 
     20 HO1        -3.4056   -0.5251    2.1248 H         1 ABC         0.3800 
     21 H21        -3.0671    2.9715    0.0966 H         1 ABC         0.3800 
@<TRIPOS>BOND
     1    1    2 1    
     2    1    7 1    
     3    1   13 1    
     4    1   14 1    
     5    2    3 1    
     6    3    4 1    
     7    3    5 2    
     8    3    6 1    
     9    4   20 1    
    10    6   21 1    
    11    7    8 1    
    12    7   12 1    
    13    7   15 1    
    14    8    9 1    
    15    8   11 1    
    16    8   16 1    
    17    9   10 2    
    18    9   17 1    
    19   11   18 1    
    20   12   19 1    
@<TRIPOS>SUBSTRUCTURE
     1 ABC         1 GROUP             0       ****    0 ROOT    
@<TRIPOS>MOLECULE
E4P
21   20    1
SMALL
USER_CHARGES


@<TRIPOS>ATOM
      1 C1         -0.1765   -0.4887    0.0486 C.3       1 ABC         0.1529 
      2 O4         -0.6365    0.8124    0.0486 O.3       1 ABC        -0.4611 
      3 P1         -2.3684    0.9800    0.0486 P.3       1 ABC         1.2307 
      4 O1         -2.6528    2.0283    1.4080 O.3       1 ABC        -0.5682 
      5 O2         -3.1373   -0.2951    0.0486 O.2       1 ABC        -0.6661 
      6 O3         -2.6528    2.0283   -1.3107 O.3       1 ABC        -0.5682 
      7 C2          1.3235   -0.4887    0.0486 C.3       1 ABC         0.2050 
      8 C3          1.8235   -1.9029    0.0486 C.3       1 ABC         0.2050 
      9 C4          3.3235   -1.9029    0.0486 C.2       1 ABC         0.4500 
     10 O5          3.9785   -1.9029   -0.9913 O.2       1 ABC        -0.4500 
     11 O7          1.3635   -2.5534   -1.0781 O.3       1 ABC        -0.6830 
     12 O6          1.7835    0.1619    1.1754 O.3       1 ABC        -0.6830 
     13 H11        -0.5398   -1.0025   -0.8413 H         1 ABC         0.0600 
     14 H12        -0.5398   -1.0025    0.9386 H         1 ABC         0.0600 
     15 H2          1.6868    0.0252   -0.8413 H         1 ABC         0.0600 
     16 H3          1.4602   -2.4167    0.9386 H         1 ABC         0.0600 
     17 H4          3.7943   -1.9029    1.0317 H         1 ABC         0.0000 
     18 HO7         0.7954   -1.9974   -1.6848 H         1 ABC         0.4180 
     19 HO6         1.4971   -0.2431    2.0437 H         1 ABC         0.4180 
     20 HO1        -2.1322    2.8821    1.3995 H         1 ABC         0.3800 
     21 H21        -2.1322    2.8821   -1.3023 H         1 ABC         0.3800 
@<TRIPOS>BOND
     1    1    2 1    
     2    1    7 1    
     3    1   13 1    
     4    1   14 1    
     5    2    3 1    
     6    3    4 1    
     7    3    5 2    
     8    3    6 1    
     9    4   20 1    
    10    6   21 1    
    11    7    8 1    
    12    7   12 1    
    13    7   15 1    
    14    8    9 1    
    15    8   11 1    
    16    8   16 1    
    17    9   10 2    
    18    9   17 1    
    19   11   18 1    
    20   12   19 1    
@<TRIPOS>SUBSTRUCTURE
     1 ABC         1 GROUP             0       ****    0 ROOT    
@<TRIPOS>MOLECULE
E4P
21   20    1
SMALL
USER_CHARGES


@<TRIPOS>ATOM
      1 C1         -0.2251   -0.8550    0.6861 C.3       1 ABC         0.1529 
      2 O4         -0.6851    0.4461    0.6861 O.3       1 ABC        -0.4611 
      3 P1         -2.4170    0.6138    0.6861 P.3       1 ABC         1.2307 
      4 O1         -2.7014    1.6620    2.0455 O.3       1 ABC        -0.5682 
      5 O2         -3.1859   -0.6614    0.6861 O.2       1 ABC        -0.6661 
      6 O3         -2.7014    1.6620   -0.6733 O.3       1 ABC        -0.5682 
      7 C2          1.2749   -0.8550    0.6861 C.3       1 ABC         0.2050 
      8 C3          1.7749   -0.1479   -0.5386 C.3       1 ABC         0.2050 
      9 C4          1.2749   -0.8550   -1.7634 C.2       1 ABC         0.4500 
     10 O5          2.0370   -1.3371   -2.5984 O.2       1 ABC        -0.4500 
     11 O7          3.1549   -0.1479   -0.5386 O.3       1 ABC        -0.6830 
     12 O6          1.7349   -2.1560    0.6861 O.3       1 ABC        -0.6830 
     13 H11        -0.5884   -1.3688   -0.2039 H         1 ABC         0.0600 
     14 H12        -0.5884   -1.3688    1.5761 H         1 ABC         0.0600 
     15 H2          1.6382   -0.3411    1.5761 H         1 ABC         0.0600 
     16 H3          1.4116    0.8798   -0.5386 H         1 ABC         0.0600 
     17 H4          0.1911   -0.9130   -1.8639 H         1 ABC         0.0000 
     18 HO7         3.5775    0.3053   -1.3235 H         1 ABC         0.4180 
     19 HO6         1.4485   -2.7055   -0.0988 H         1 ABC         0.4180 
     20 HO1        -2.1808    2.5158    2.0370 H         1 ABC         0.3800 
     21 H21        -2.1808    2.5158   -0.6648 H         1 ABC         0.3800 
@<TRIPOS>BOND
     1    1    2 1    
     2    1    7 1    
     3    1   13 1    
     4    1   14 1    
     5    2    3 1    
     6    3    4 1    
     7    3    5 2    
     8    3    6 1    
     9    4   20 1    
    10    6   21 1    
    11    7    8 1    
    12    7   12 1    
    13    7   15 1    
    14    8    9 1    
    15    8   11 1    
    16    8   16 1    
    17    9   10 2    
    18    9   17 1    
    19   11   18 1    
    20   12   19 1    
@<TRIPOS>SUBSTRUCTURE
     1 ABC         1 GROUP             0       ****    0 ROOT    
@<TRIPOS>MOLECULE
E4P
21   20    1
SMALL
USER_CHARGES


@<TRIPOS>ATOM
      1 C1          0.1666   -1.1524   -0.3878 C.3       1 ABC         0.1529 
      2 O4         -0.2934    0.1486   -0.3878 O.3       1 ABC        -0.4611 
      3 P1         -2.0253    0.3163   -0.3878 P.3       1 ABC         1.2307 
      4 O1         -2.2452    2.0307   -0.5879 O.3       1 ABC        -0.5682 
      5 O2         -2.7295   -0.2903    0.7755 O.2       1 ABC        -0.6661 
      6 O3         -2.4721   -0.3129   -1.9473 O.3       1 ABC        -0.5682 
      7 C2          1.6666   -1.1524   -0.3878 C.3       1 ABC         0.2050 
      8 C3          2.1666   -0.4453    0.8370 C.3       1 ABC         0.2050 
      9 C4          1.6666   -1.1524    2.0617 C.2       1 ABC         0.4500 
     10 O5          2.4287   -1.6345    2.8967 O.2       1 ABC        -0.4500 
     11 O7          1.7066    0.8557    0.8370 O.3       1 ABC        -0.6830 
     12 O6          2.1266   -0.5019   -1.5145 O.3       1 ABC        -0.6830 
     13 H11        -0.1968   -1.6663   -1.2777 H         1 ABC         0.0600 
     14 H12        -0.1968   -1.6663    0.5022 H         1 ABC         0.0600 
     15 H2          2.0299   -2.1801   -0.3878 H         1 ABC         0.0600 
     16 H3          3.2566   -0.4453    0.8370 H         1 ABC         0.0600 
     17 H4          0.5828   -1.2105    2.1623 H         1 ABC         0.0000 
     18 HO7         1.9929    1.4052    1.6219 H         1 ABC         0.4180 
     19 HO6         1.8402    0.4526   -1.5980 H         1 ABC         0.4180 
     20 HO1        -2.8286    2.4649    0.0985 H         1 ABC         0.3800 
     21 H21        -3.1670   -1.0317   -1.9297 H         1 ABC         0.3800 
@<TRIPOS>BOND
     1    1    2 1    
     2    1    7 1    
     3    1   13 1    
     4    1   14 1    
     5    2    3 1    
     6    3    4 1    
     7    3    5 2    
     8    3    6 1    
     9    4   20 1    
    10    6   21 1    
    11    7    8 1    
    12    7   12 1    
    13    7   15 1    
    14    8    9 1    
    15    8   11 1    
    16    8   16 1    
    17    9   10 2    
    18    9   17 1    
    19   11   18 1    
    20   12   19 1    
@<TRIPOS>SUBSTRUCTURE
     1 ABC         1 GROUP             0       ****    0 ROOT    
@<TRIPOS>MOLECULE
E4P
21   20    1
SMALL
USER_CHARGES


@<TRIPOS>ATOM
      1 C1          0.1917   -0.7363    0.5938 C.3       1 ABC         0.1529 
      2 O4         -0.2683    0.5648    0.5938 O.3       1 ABC        -0.4611 
      3 P1         -2.0002    0.7324    0.5938 P.3       1 ABC         1.2307 
      4 O1         -2.4804   -0.2418   -0.7656 O.3       1 ABC        -0.5682 
      5 O2         -2.5103    2.1314    0.5938 O.2       1 ABC        -0.6661 
      6 O3         -2.4804   -0.2418    1.9532 O.3       1 ABC        -0.5682 
      7 C2          1.6917   -0.7363    0.5938 C.3       1 ABC         0.2050 
      8 C3          2.1917   -0.0292   -0.6310 C.3       1 ABC         0.2050 
      9 C4          1.6917    1.3850   -0.6310 C.2       1 ABC         0.4500 
     10 O5          1.4733    2.0026   -1.6709 O.2       1 ABC        -0.4500 
     11 O7          1.7317   -0.6797   -1.7577 O.3       1 ABC        -0.6830 
     12 O6          2.1517   -2.0373    0.5938 O.3       1 ABC        -0.6830 
     13 H11        -0.1717   -1.2501   -0.2962 H         1 ABC         0.0600 
     14 H12        -0.1717   -1.2501    1.4838 H         1 ABC         0.0600 
     15 H2          2.0550   -0.2224    1.4838 H         1 ABC         0.0600 
     16 H3          3.2817   -0.0292   -0.6310 H         1 ABC         0.0600 
     17 H4          1.5348    1.8289    0.3521 H         1 ABC         0.0000 
     18 HO7         2.0180   -0.2747   -2.6260 H         1 ABC         0.4180 
     19 HO6         2.7198   -2.2847    1.3787 H         1 ABC         0.4180 
     20 HO1        -3.0608    0.2228   -1.4344 H         1 ABC         0.3800 
     21 H21        -3.0608    0.2227    2.6220 H         1 ABC         0.3800 
@<TRIPOS>BOND
     1    1    2 1    
     2    1    7 1    
     3    1   13 1    
     4    1   14 1    
     5    2    3 1    
     6    3    4 1    
     7    3    5 2    
     8    3    6 1    
     9    4   20 1    
    10    6   21 1    
    11    7    8 1    
    12    7   12 1    
    13    7   15 1    
    14    8    9 1    
    15    8   11 1    
    16    8   16 1    
    17    9   10 2    
    18    9   17 1    
    19   11   18 1    
    20   12   19 1    
@<TRIPOS>SUBSTRUCTURE
     1 ABC         1 GROUP             0       ****    0 ROOT    
@<TRIPOS>MOLECULE
E4P
21   20    1
SMALL
USER_CHARGES


@<TRIPOS>ATOM
      1 C1         -0.0118   -0.1609    0.1519 C.3       1 ABC         0.1529 
      2 O4         -0.4718    1.1402    0.1519 O.3       1 ABC        -0.4611 
      3 P1         -2.2037    1.3079    0.1519 P.3       1 ABC         1.2307 
      4 O1         -2.5215    2.0110   -1.4076 O.3       1 ABC        -0.5682 
      5 O2         -2.7785    2.0383    1.3152 O.2       1 ABC        -0.6661 
      6 O3         -2.7484   -0.3325   -0.0482 O.3       1 ABC        -0.5682 
      7 C2          1.4882   -0.1609    0.1519 C.3       1 ABC         0.2050 
      8 C3          1.9882   -1.5751    0.1519 C.3       1 ABC         0.2050 
      9 C4          3.4882   -1.5751    0.1519 C.2       1 ABC         0.4500 
     10 O5          4.1432   -1.5751   -0.8880 O.2       1 ABC        -0.4500 
     11 O7          1.5282   -2.2256   -0.9749 O.3       1 ABC        -0.6830 
     12 O6          1.9482    0.4897    1.2787 O.3       1 ABC        -0.6830 
     13 H11        -0.3752   -0.6747   -0.7381 H         1 ABC         0.0600 
     14 H12        -0.3752   -0.6747    1.0419 H         1 ABC         0.0600 
     15 H2          1.8515    0.3530   -0.7381 H         1 ABC         0.0600 
     16 H3          1.6248   -2.0889    1.0419 H         1 ABC         0.0600 
     17 H4          3.9589   -1.5751    1.1350 H         1 ABC         0.0000 
     18 HO7         0.9600   -1.6696   -1.5816 H         1 ABC         0.4180 
     19 HO6         1.6618    0.0847    2.1470 H         1 ABC         0.4180 
     20 HO1        -3.0657    2.8498   -1.3901 H         1 ABC         0.3800 
     21 H21        -3.4042   -0.6468    0.6382 H         1 ABC         0.3800 
@<TRIPOS>BOND
     1    1    2 1    
     2    1    7 1    
     3    1   13 1    
     4    1   14 1    
     5    2    3 1    
     6    3    4 1    
     7    3    5 2    
     8    3    6 1    
     9    4   20 1    
    10    6   21 1    
    11    7    8 1    
    12    7   12 1    
    13    7   15 1    
    14    8    9 1    
    15    8   11 1    
    16    8   16 1    
    17    9   10 2    
    18    9   17 1    
    19   11   18 1    
    20   12   19 1    
@<TRIPOS>SUBSTRUCTURE
     1 ABC         1 GROUP             0       ****    0 ROOT    
@<TRIPOS>MOLECULE
E4P
21   20    1
SMALL
USER_CHARGES


@<TRIPOS>ATOM
      1 C1         -0.0614   -0.3240   -0.5967 C.3       1 ABC         0.1529 
      2 O4         -0.5214    0.9771   -0.5967 O.3       1 ABC        -0.4611 
      3 P1         -1.5099    1.4076    0.7690 P.3       1 ABC         1.2307 
      4 O1         -2.0649    3.0035    0.3536 O.3       1 ABC        -0.5682 
      5 O2         -0.8560    1.2811    2.1007 O.2       1 ABC        -0.6661 
      6 O3         -2.9326    0.4334    0.5356 O.3       1 ABC        -0.5682 
      7 C2          1.4386   -0.3240   -0.5967 C.3       1 ABC         0.2050 
      8 C3          1.9386   -1.7382   -0.5967 C.3       1 ABC         0.2050 
      9 C4          1.4386   -2.4453   -1.8215 C.2       1 ABC         0.4500 
     10 O5          2.0694   -2.4539   -2.8762 O.2       1 ABC        -0.4500 
     11 O7          1.4786   -2.3887    0.5300 O.3       1 ABC        -0.6830 
     12 O6          1.8986    0.3266    0.5300 O.3       1 ABC        -0.6830 
     13 H11        -0.4247   -0.8378   -1.4867 H         1 ABC         0.0600 
     14 H12        -0.4247   -0.8378    0.2933 H         1 ABC         0.0600 
     15 H2          1.8020    0.1899   -1.4867 H         1 ABC         0.0600 
     16 H3          3.0286   -1.7382   -0.5967 H         1 ABC         0.0600 
     17 H4          0.4790   -2.9510   -1.7143 H         1 ABC         0.0000 
     18 HO7         0.9105   -1.8327    1.1367 H         1 ABC         0.4180 
     19 HO6         2.4668    1.1300    0.3519 H         1 ABC         0.4180 
     20 HO1        -2.5026    3.0788   -0.5424 H         1 ABC         0.3800 
     21 H21        -3.1913   -0.1313    1.3193 H         1 ABC         0.3800 
@<TRIPOS>BOND
     1    1    2 1    
     2    1    7 1    
     3    1   13 1    
     4    1   14 1    
     5    2    3 1    
     6    3    4 1    
     7    3    5 2    
     8    3    6 1    
     9    4   20 1    
    10    6   21 1    
    11    7    8 1    
    12    7   12 1    
    13    7   15 1    
    14    8    9 1    
    15    8   11 1    
    16    8   16 1    
    17    9   10 2    
    18    9   17 1    
    19   11   18 1    
    20   12   19 1    
@<TRIPOS>SUBSTRUCTURE
     1 ABC         1 GROUP             0       ****    0 ROOT    
@<TRIPOS>MOLECULE
E4P
21   20    1
SMALL
USER_CHARGES


@<TRIPOS>ATOM
      1 C1         -0.6978   -0.6163    0.3511 C.3       1 ABC         0.1529 
      2 O4         -1.1578    0.6847    0.3511 O.3       1 ABC        -0.4611 
      3 P1         -0.6595    1.6409   -1.0146 P.3       1 ABC         1.2307 
      4 O1         -2.1688    2.2560   -1.6239 O.3       1 ABC        -0.5682 
      5 O2          0.1979    0.9407   -2.0105 O.2       1 ABC        -0.6661 
      6 O3          0.0511    3.0409   -0.2645 O.3       1 ABC        -0.5682 
      7 C2          0.8022   -0.6163    0.3511 C.3       1 ABC         0.2050 
      8 C3          1.3022   -2.0306    0.3511 C.3       1 ABC         0.2050 
      9 C4          0.8022   -2.7377   -0.8736 C.2       1 ABC         0.4500 
     10 O5         -0.2652   -3.3466   -0.8885 O.2       1 ABC        -0.4500 
     11 O7          0.8422   -2.6811    1.4779 O.3       1 ABC        -0.6830 
     12 O6          1.2622    0.0342    1.4779 O.3       1 ABC        -0.6830 
     13 H11        -1.0611   -1.1302   -0.5389 H         1 ABC         0.0600 
     14 H12        -1.0611   -1.1302    1.2411 H         1 ABC         0.0600 
     15 H2          1.1655   -0.1025   -0.5389 H         1 ABC         0.0600 
     16 H3          2.3922   -2.0306    0.3511 H         1 ABC         0.0600 
     17 H4          1.4480   -2.6758   -1.7496 H         1 ABC         0.0000 
     18 HO7         1.1286   -3.6356    1.5613 H         1 ABC         0.4180 
     19 HO6         1.8303    0.8376    1.2997 H         1 ABC         0.4180 
     20 HO1        -2.7379    2.7246   -0.9482 H         1 ABC         0.3800 
     21 H21        -0.5319    3.5045    0.4027 H         1 ABC         0.3800 
@<TRIPOS>BOND
     1    1    2 1    
     2    1    7 1    
     3    1   13 1    
     4    1   14 1    
     5    2    3 1    
     6    3    4 1    
     7    3    5 2    
     8    3    6 1    
     9    4   20 1    
    10    6   21 1    
    11    7    8 1    
    12    7   12 1    
    13    7   15 1    
    14    8    9 1    
    15    8   11 1    
    16    8   16 1    
    17    9   10 2    
    18    9   17 1    
    19   11   18 1    
    20   12   19 1    
@<TRIPOS>SUBSTRUCTURE
     1 ABC         1 GROUP             0       ****    0 ROOT    
@<TRIPOS>MOLECULE
E4P
21   20    1
SMALL
USER_CHARGES


@<TRIPOS>ATOM
      1 C1         -0.9871   -0.9817   -0.1039 C.3       1 ABC         0.1529 
      2 O4         -1.4471    0.3193   -0.1039 O.3       1 ABC        -0.4611 
      3 P1         -0.9488    1.2755    1.2618 P.3       1 ABC         1.2307 
      4 O1         -1.8471    2.7500    1.0465 O.3       1 ABC        -0.5682 
      5 O2          0.5217    1.4377    1.4302 O.2       1 ABC        -0.6661 
      6 O3         -1.7767    0.5116    2.5880 O.3       1 ABC        -0.5682 
      7 C2          0.5129   -0.9817   -0.1039 C.3       1 ABC         0.2050 
      8 C3          1.0129   -0.2746   -1.3286 C.3       1 ABC         0.2050 
      9 C4          0.5129   -0.9817   -2.5534 C.2       1 ABC         0.4500 
     10 O5          0.7848   -2.1571   -2.7880 O.2       1 ABC        -0.4500 
     11 O7          2.3929   -0.2746   -1.3286 O.3       1 ABC        -0.6830 
     12 O6          0.9729   -2.2828   -0.1039 O.3       1 ABC        -0.6830 
     13 H11        -1.3504   -1.4956   -0.9939 H         1 ABC         0.0600 
     14 H12        -1.3504   -1.4956    0.7861 H         1 ABC         0.0600 
     15 H2          0.8762   -0.4679    0.7861 H         1 ABC         0.0600 
     16 H3          0.6496    0.7530   -1.3286 H         1 ABC         0.0600 
     17 H4         -0.1075   -0.3844   -3.2216 H         1 ABC         0.0000 
     18 HO7         2.8155    0.1785   -2.1135 H         1 ABC         0.4180 
     19 HO6         1.5410   -2.5302    0.6810 H         1 ABC         0.4180 
     20 HO1        -1.2969    3.5850    1.0543 H         1 ABC         0.3800 
     21 H21        -2.7637    0.4069    2.4660 H         1 ABC         0.3800 
@<TRIPOS>BOND
     1    1    2 1    
     2    1    7 1    
     3    1   13 1    
     4    1   14 1    
     5    2    3 1    
     6    3    4 1    
     7    3    5 2    
     8    3    6 1    
     9    4   20 1    
    10    6   21 1    
    11    7    8 1    
    12    7   12 1    
    13    7   15 1    
    14    8    9 1    
    15    8   11 1    
    16    8   16 1    
    17    9   10 2    
    18    9   17 1    
    19   11   18 1    
    20   12   19 1    
@<TRIPOS>SUBSTRUCTURE
     1 ABC         1 GROUP             0       ****    0 ROOT    
@<TRIPOS>MOLECULE
E4P
21   20    1
SMALL
USER_CHARGES


@<TRIPOS>ATOM
      1 C1         -0.7097   -0.4089    0.5227 C.3       1 ABC         0.1529 
      2 O4         -1.1697    0.8921    0.5227 O.3       1 ABC        -0.4611 
      3 P1         -0.6714    1.8483   -0.8430 P.3       1 ABC         1.2307 
      4 O1         -1.4993    1.0844   -2.1691 O.3       1 ABC        -0.5682 
      5 O2          0.7991    2.0106   -1.0114 O.2       1 ABC        -0.6661 
      6 O3         -1.5697    3.3228   -0.6277 O.3       1 ABC        -0.5682 
      7 C2          0.7903   -0.4089    0.5227 C.3       1 ABC         0.2050 
      8 C3          1.2903   -1.8231    0.5227 C.3       1 ABC         0.2050 
      9 C4          0.7903   -2.5302   -0.7020 C.2       1 ABC         0.4500 
     10 O5         -0.2771   -3.1392   -0.7169 O.2       1 ABC        -0.4500 
     11 O7          0.8303   -2.4737    1.6495 O.3       1 ABC        -0.6830 
     12 O6          1.2503    0.2416    1.6495 O.3       1 ABC        -0.6830 
     13 H11        -1.0731   -0.9228   -0.3672 H         1 ABC         0.0600 
     14 H12        -1.0731   -0.9228    1.4127 H         1 ABC         0.0600 
     15 H2          1.1536    0.1049   -0.3672 H         1 ABC         0.0600 
     16 H3          2.3803   -1.8231    0.5227 H         1 ABC         0.0600 
     17 H4          1.4361   -2.4684   -1.5779 H         1 ABC         0.0000 
     18 HO7         1.1166   -3.4282    1.7329 H         1 ABC         0.4180 
     19 HO6         0.9639   -0.1634    2.5178 H         1 ABC         0.4180 
     20 HO1        -0.9144    0.8180   -2.9353 H         1 ABC         0.3800 
     21 H21        -1.0195    4.1578   -0.6354 H         1 ABC         0.3800 
@<TRIPOS>BOND
     1    1    2 1    
     2    1    7 1    
     3    1   13 1    
     4    1   14 1    
     5    2    3 1    
     6    3    4 1    
     7    3    5 2    
     8    3    6 1    
     9    4   20 1    
    10    6   21 1    
    11    7    8 1    
    12    7   12 1    
    13    7   15 1    
    14    8    9 1    
    15    8   11 1    
    16    8   16 1    
    17    9   10 2    
    18    9   17 1    
    19   11   18 1    
    20   12   19 1    
@<TRIPOS>SUBSTRUCTURE
     1 ABC         1 GROUP             0       ****    0 ROOT    
@<TRIPOS>MOLECULE
E4P
21   20    1
SMALL
USER_CHARGES


@<TRIPOS>ATOM
      1 C1          0.2340   -0.6745    0.8122 C.3       1 ABC         0.1529 
      2 O4         -0.2260    0.6266    0.8122 O.3       1 ABC        -0.4611 
      3 P1         -1.9579    0.7943    0.8122 P.3       1 ABC         1.2307 
      4 O1         -2.2757    1.4974   -0.7473 O.3       1 ABC        -0.5682 
      5 O2         -2.5327    1.5247    1.9755 O.2       1 ABC        -0.6661 
      6 O3         -2.5025   -0.8461    0.6121 O.3       1 ABC        -0.5682 
      7 C2          1.7340   -0.6745    0.8122 C.3       1 ABC         0.2050 
      8 C3          2.2340    0.0326   -0.4125 C.3       1 ABC         0.2050 
      9 C4          1.7340    1.4469   -0.4125 C.2       1 ABC         0.4500 
     10 O5          0.6666    1.7642   -0.9325 O.2       1 ABC        -0.4500 
     11 O7          1.7740   -0.6179   -1.5393 O.3       1 ABC        -0.6830 
     12 O6          2.1940   -1.9755    0.8122 O.3       1 ABC        -0.6830 
     13 H11        -0.1293   -1.1883   -0.0778 H         1 ABC         0.0600 
     14 H12        -0.1293   -1.1883    1.7022 H         1 ABC         0.0600 
     15 H2          2.0974   -0.1606    1.7022 H         1 ABC         0.0600 
     16 H3          3.3240    0.0326   -0.4125 H         1 ABC         0.0600 
     17 H4          2.3798    2.1745    0.0790 H         1 ABC         0.0000 
     18 HO7         2.0604   -0.2129   -2.4076 H         1 ABC         0.4180 
     19 HO6         1.9077   -2.5250    0.0273 H         1 ABC         0.4180 
     20 HO1        -1.8859    1.0002   -1.5225 H         1 ABC         0.3800 
     21 H21        -3.1583   -1.1604    1.2985 H         1 ABC         0.3800 
@<TRIPOS>BOND
     1    1    2 1    
     2    1    7 1    
     3    1   13 1    
     4    1   14 1    
     5    2    3 1    
     6    3    4 1    
     7    3    5 2    
     8    3    6 1    
     9    4   20 1    
    10    6   21 1    
    11    7    8 1    
    12    7   12 1    
    13    7   15 1    
    14    8    9 1    
    15    8   11 1    
    16    8   16 1    
    17    9   10 2    
    18    9   17 1    
    19   11   18 1    
    20   12   19 1    
@<TRIPOS>SUBSTRUCTURE
     1 ABC         1 GROUP             0       ****    0 ROOT    
@<TRIPOS>MOLECULE
E4P
21   20    1
SMALL
USER_CHARGES


@<TRIPOS>ATOM
      1 C1          0.2393   -0.7767    0.6652 C.3       1 ABC         0.1529 
      2 O4         -0.2207    0.5243    0.6652 O.3       1 ABC        -0.4611 
      3 P1         -1.9526    0.6920    0.6652 P.3       1 ABC         1.2307 
      4 O1         -2.2704    1.3952   -0.8944 O.3       1 ABC        -0.5682 
      5 O2         -2.5274    1.4224    1.8285 O.2       1 ABC        -0.6661 
      6 O3         -2.4972   -0.9484    0.4650 O.3       1 ABC        -0.5682 
      7 C2          1.7393   -0.7767    0.6652 C.3       1 ABC         0.2050 
      8 C3          2.2393   -0.0696   -0.5596 C.3       1 ABC         0.2050 
      9 C4          1.7393    1.3446   -0.5596 C.2       1 ABC         0.4500 
     10 O5          1.5210    1.9622    0.4803 O.2       1 ABC        -0.4500 
     11 O7          1.7793   -0.7202   -1.6863 O.3       1 ABC        -0.6830 
     12 O6          2.1993   -2.0778    0.6652 O.3       1 ABC        -0.6830 
     13 H11        -0.1240   -1.2906   -0.2248 H         1 ABC         0.0600 
     14 H12        -0.1240   -1.2906    1.5551 H         1 ABC         0.0600 
     15 H2          2.1027   -0.2629    1.5551 H         1 ABC         0.0600 
     16 H3          3.3293   -0.0696   -0.5596 H         1 ABC         0.0600 
     17 H4          1.5824    1.7884   -1.5427 H         1 ABC         0.0000 
     18 HO7         2.0657   -0.3152   -2.5547 H         1 ABC         0.4180 
     19 HO6         1.9130   -2.6273   -0.1197 H         1 ABC         0.4180 
     20 HO1        -2.8145    2.2340   -0.8768 H         1 ABC         0.3800 
     21 H21        -3.1530   -1.2627    1.1514 H         1 ABC         0.3800 
@<TRIPOS>BOND
     1    1    2 1    
     2    1    7 1    
     3    1   13 1    
     4    1   14 1    
     5    2    3 1    
     6    3    4 1    
     7    3    5 2    
     8    3    6 1    
     9    4   20 1    
    10    6   21 1    
    11    7    8 1    
    12    7   12 1    
    13    7   15 1    
    14    8    9 1    
    15    8   11 1    
    16    8   16 1    
    17    9   10 2    
    18    9   17 1    
    19   11   18 1    
    20   12   19 1    
@<TRIPOS>SUBSTRUCTURE
     1 ABC         1 GROUP             0       ****    0 ROOT    
@<TRIPOS>MOLECULE
E4P
21   20    1
SMALL
USER_CHARGES


@<TRIPOS>ATOM
      1 C1         -0.6428   -1.1822   -0.9972 C.3       1 ABC         0.1529 
      2 O4         -1.1028    0.1189   -0.9972 O.3       1 ABC        -0.4611 
      3 P1         -2.0913    0.5494    0.3685 P.3       1 ABC         1.2307 
      4 O1         -0.9673    0.4756    1.6947 O.3       1 ABC        -0.5682 
      5 O2         -3.3371   -0.2487    0.5370 O.2       1 ABC        -0.6661 
      6 O3         -2.3195    2.2609    0.1532 O.3       1 ABC        -0.5682 
      7 C2          0.8572   -1.1822   -0.9972 C.3       1 ABC         0.2050 
      8 C3          1.3572   -0.4751    0.2276 C.3       1 ABC         0.2050 
      9 C4          2.8572   -0.4751    0.2276 C.2       1 ABC         0.4500 
     10 O5          3.5122    0.0449   -0.6730 O.2       1 ABC        -0.4500 
     11 O7          0.8972   -1.1256    1.3543 O.3       1 ABC        -0.6830 
     12 O6          1.3172   -0.5316   -2.1240 O.3       1 ABC        -0.6830 
     13 H11        -1.0062   -1.6960   -1.8872 H         1 ABC         0.0600 
     14 H12        -1.0062   -1.6960   -0.1072 H         1 ABC         0.0600 
     15 H2          1.2205   -2.2098   -0.9972 H         1 ABC         0.0600 
     16 H3          0.9938    0.5526    0.2276 H         1 ABC         0.0600 
     17 H4          3.3279   -0.9666    1.0789 H         1 ABC         0.0000 
     18 HO7         1.1835   -0.7206    2.2226 H         1 ABC         0.4180 
     19 HO6         1.8853   -1.0877   -2.7306 H         1 ABC         0.4180 
     20 HO1        -0.1338    1.0145    1.5727 H         1 ABC         0.3800 
     21 H21        -3.2722    2.5645    0.1610 H         1 ABC         0.3800 
@<TRIPOS>BOND
     1    1    2 1    
     2    1    7 1    
     3    1   13 1    
     4    1   14 1    
     5    2    3 1    
     6    3    4 1    
     7    3    5 2    
     8    3    6 1    
     9    4   20 1    
    10    6   21 1    
    11    7    8 1    
    12    7   12 1    
    13    7   15 1    
    14    8    9 1    
    15    8   11 1    
    16    8   16 1    
    17    9   10 2    
    18    9   17 1    
    19   11   18 1    
    20   12   19 1    
@<TRIPOS>SUBSTRUCTURE
     1 ABC         1 GROUP             0       ****    0 ROOT    
@<TRIPOS>MOLECULE
E4P
21   20    1
SMALL
USER_CHARGES


@<TRIPOS>ATOM
      1 C1         -0.2148   -1.0519   -0.1480 C.3       1 ABC         0.1529 
      2 O4         -0.6748    0.2492   -0.1480 O.3       1 ABC        -0.4611 
      3 P1         -1.6633    0.6797    1.2177 P.3       1 ABC         1.2307 
      4 O1         -0.5393    0.6058    2.5439 O.3       1 ABC        -0.5682 
      5 O2         -2.9090   -0.1184    1.3862 O.2       1 ABC        -0.6661 
      6 O3         -1.8914    2.3911    1.0024 O.3       1 ABC        -0.5682 
      7 C2          1.2852   -1.0519   -0.1480 C.3       1 ABC         0.2050 
      8 C3          1.7852   -0.3448   -1.3727 C.3       1 ABC         0.2050 
      9 C4          1.2852    1.0694   -1.3727 C.2       1 ABC         0.4500 
     10 O5          1.0669    1.6870   -0.3328 O.2       1 ABC        -0.4500 
     11 O7          1.3252   -0.9953   -2.4995 O.3       1 ABC        -0.6830 
     12 O6          1.7452   -2.3530   -0.1480 O.3       1 ABC        -0.6830 
     13 H11        -0.5781   -1.5657   -1.0380 H         1 ABC         0.0600 
     14 H12        -0.5781   -1.5657    0.7420 H         1 ABC         0.0600 
     15 H2          1.6486   -0.5381    0.7420 H         1 ABC         0.0600 
     16 H3          2.8752   -0.3448   -1.3727 H         1 ABC         0.0600 
     17 H4          1.1283    1.5133   -2.3558 H         1 ABC         0.0000 
     18 HO7         1.6116   -0.5903   -3.3678 H         1 ABC         0.4180 
     19 HO6         1.4589   -2.9025   -0.9329 H         1 ABC         0.4180 
     20 HO1        -0.8267    0.0311    3.3100 H         1 ABC         0.3800 
     21 H21        -2.8442    2.6948    1.0102 H         1 ABC         0.3800 
@<TRIPOS>BOND
     1    1    2 1    
     2    1    7 1    
     3    1   13 1    
     4    1   14 1    
     5    2    3 1    
     6    3    4 1    
     7    3    5 2    
     8    3    6 1    
     9    4   20 1    
    10    6   21 1    
    11    7    8 1    
    12    7   12 1    
    13    7   15 1    
    14    8    9 1    
    15    8   11 1    
    16    8   16 1    
    17    9   10 2    
    18    9   17 1    
    19   11   18 1    
    20   12   19 1    
@<TRIPOS>SUBSTRUCTURE
     1 ABC         1 GROUP             0       ****    0 ROOT    
@<TRIPOS>MOLECULE
E4P
21   20    1
SMALL
USER_CHARGES


@<TRIPOS>ATOM
      1 C1          0.0577   -0.2617    0.1040 C.3       1 ABC         0.1529 
      2 O4         -0.4023    1.0393    0.1040 O.3       1 ABC        -0.4611 
      3 P1         -2.1342    1.2070    0.1040 P.3       1 ABC         1.2307 
      4 O1         -2.3542    2.9214   -0.0962 O.3       1 ABC        -0.5682 
      5 O2         -2.8384    0.6004    1.2673 O.2       1 ABC        -0.6661 
      6 O3         -2.5810    0.5778   -1.4556 O.3       1 ABC        -0.5682 
      7 C2          1.5577   -0.2617    0.1040 C.3       1 ABC         0.2050 
      8 C3          2.0577   -1.6760    0.1040 C.3       1 ABC         0.2050 
      9 C4          1.5577   -2.3831   -1.1208 C.2       1 ABC         0.4500 
     10 O5          1.8295   -3.5584   -1.3554 O.2       1 ABC        -0.4500 
     11 O7          1.5977   -2.3265    1.2307 O.3       1 ABC        -0.6830 
     12 O6          2.0177    0.3888    1.2307 O.3       1 ABC        -0.6830 
     13 H11        -0.3057   -0.7756   -0.7860 H         1 ABC         0.0600 
     14 H12        -0.3057   -0.7756    0.9939 H         1 ABC         0.0600 
     15 H2          1.9210    0.2521   -0.7860 H         1 ABC         0.0600 
     16 H3          3.1477   -1.6760    0.1040 H         1 ABC         0.0600 
     17 H4          0.9373   -1.7857   -1.7890 H         1 ABC         0.0000 
     18 HO7         1.0296   -1.7705    1.8374 H         1 ABC         0.4180 
     19 HO6         2.5858    1.1922    1.0525 H         1 ABC         0.4180 
     20 HO1        -1.8776    3.3199   -0.8798 H         1 ABC         0.3800 
     21 H21        -2.1031    0.9910   -2.2307 H         1 ABC         0.3800 
@<TRIPOS>BOND
     1    1    2 1    
     2    1    7 1    
     3    1   13 1    
     4    1   14 1    
     5    2    3 1    
     6    3    4 1    
     7    3    5 2    
     8    3    6 1    
     9    4   20 1    
    10    6   21 1    
    11    7    8 1    
    12    7   12 1    
    13    7   15 1    
    14    8    9 1    
    15    8   11 1    
    16    8   16 1    
    17    9   10 2    
    18    9   17 1    
    19   11   18 1    
    20   12   19 1    
@<TRIPOS>SUBSTRUCTURE
     1 ABC         1 GROUP             0       ****    0 ROOT    
@<TRIPOS>MOLECULE
E4P
21   20    1
SMALL
USER_CHARGES


@<TRIPOS>ATOM
      1 C1         -0.6298   -0.3674    0.5110 C.3       1 ABC         0.1529 
      2 O4         -1.0898    0.9337    0.5110 O.3       1 ABC        -0.4611 
      3 P1         -0.5915    1.8899   -0.8547 P.3       1 ABC         1.2307 
      4 O1         -1.4193    1.1259   -2.1809 O.3       1 ABC        -0.5682 
      5 O2          0.8790    2.0521   -1.0232 O.2       1 ABC        -0.6661 
      6 O3         -1.4898    3.3644   -0.6394 O.3       1 ABC        -0.5682 
      7 C2          0.8702   -0.3674    0.5110 C.3       1 ABC         0.2050 
      8 C3          1.3702   -1.7816    0.5110 C.3       1 ABC         0.2050 
      9 C4          0.8702   -2.4887   -0.7138 C.2       1 ABC         0.4500 
     10 O5          1.6323   -2.9708   -1.5488 O.2       1 ABC        -0.4500 
     11 O7          0.9102   -2.4321    1.6378 O.3       1 ABC        -0.6830 
     12 O6          1.3302    0.2832    1.6378 O.3       1 ABC        -0.6830 
     13 H11        -0.9931   -0.8812   -0.3790 H         1 ABC         0.0600 
     14 H12        -0.9931   -0.8812    1.4010 H         1 ABC         0.0600 
     15 H2          1.2336    0.1465   -0.3790 H         1 ABC         0.0600 
     16 H3          2.4602   -1.7816    0.5110 H         1 ABC         0.0600 
     17 H4         -0.2136   -2.5467   -0.8143 H         1 ABC         0.0000 
     18 HO7         1.1966   -3.3866    1.7212 H         1 ABC         0.4180 
     19 HO6         1.0439   -0.1218    2.5061 H         1 ABC         0.4180 
     20 HO1        -2.4063    1.0212   -2.0589 H         1 ABC         0.3800 
     21 H21        -2.4764    3.2457   -0.5271 H         1 ABC         0.3800 
@<TRIPOS>BOND
     1    1    2 1    
     2    1    7 1    
     3    1   13 1    
     4    1   14 1    
     5    2    3 1    
     6    3    4 1    
     7    3    5 2    
     8    3    6 1    
     9    4   20 1    
    10    6   21 1    
    11    7    8 1    
    12    7   12 1    
    13    7   15 1    
    14    8    9 1    
    15    8   11 1    
    16    8   16 1    
    17    9   10 2    
    18    9   17 1    
    19   11   18 1    
    20   12   19 1    
@<TRIPOS>SUBSTRUCTURE
     1 ABC         1 GROUP             0       ****    0 ROOT    
@<TRIPOS>MOLECULE
E4P
21   20    1
SMALL
USER_CHARGES


@<TRIPOS>ATOM
      1 C1         -0.8731   -0.6233    0.6397 C.3       1 ABC         0.1529 
      2 O4         -1.3331    0.6778    0.6397 O.3       1 ABC        -0.4611 
      3 P1         -0.8348    1.6339   -0.7260 P.3       1 ABC         1.2307 
      4 O1         -1.6626    0.8700   -2.0522 O.3       1 ABC        -0.5682 
      5 O2          0.6357    1.7962   -0.8945 O.2       1 ABC        -0.6661 
      6 O3         -1.7331    3.1085   -0.5108 O.3       1 ABC        -0.5682 
      7 C2          0.6269   -0.6233    0.6397 C.3       1 ABC         0.2050 
      8 C3          1.1269   -2.0375    0.6397 C.3       1 ABC         0.2050 
      9 C4          2.6269   -2.0375    0.6397 C.2       1 ABC         0.4500 
     10 O5          3.2819   -2.5575    1.5402 O.2       1 ABC        -0.4500 
     11 O7          0.6669   -2.6881   -0.4871 O.3       1 ABC        -0.6830 
     12 O6          1.0869    0.0272    1.7664 O.3       1 ABC        -0.6830 
     13 H11        -1.2364   -1.1371   -0.2503 H         1 ABC         0.0600 
     14 H12        -1.2364   -1.1371    1.5296 H         1 ABC         0.0600 
     15 H2          0.9902   -0.1095   -0.2503 H         1 ABC         0.0600 
     16 H3          0.7636   -2.5514    1.5296 H         1 ABC         0.0600 
     17 H4          3.0977   -1.5460   -0.2117 H         1 ABC         0.0000 
     18 HO7         0.0988   -2.1320   -1.0938 H         1 ABC         0.4180 
     19 HO6         1.6550    0.8307    1.5882 H         1 ABC         0.4180 
     20 HO1        -2.6496    0.7653   -1.9303 H         1 ABC         0.3800 
     21 H21        -2.7197    2.9898   -0.3985 H         1 ABC         0.3800 
@<TRIPOS>BOND
     1    1    2 1    
     2    1    7 1    
     3    1   13 1    
     4    1   14 1    
     5    2    3 1    
     6    3    4 1    
     7    3    5 2    
     8    3    6 1    
     9    4   20 1    
    10    6   21 1    
    11    7    8 1    
    12    7   12 1    
    13    7   15 1    
    14    8    9 1    
    15    8   11 1    
    16    8   16 1    
    17    9   10 2    
    18    9   17 1    
    19   11   18 1    
    20   12   19 1    
@<TRIPOS>SUBSTRUCTURE
     1 ABC         1 GROUP             0       ****    0 ROOT    
@<TRIPOS>MOLECULE
E4P
21   20    1
SMALL
USER_CHARGES


@<TRIPOS>ATOM
      1 C1         -0.0637   -0.6754    0.8031 C.3       1 ABC         0.1529 
      2 O4         -0.5237    0.6256    0.8031 O.3       1 ABC        -0.4611 
      3 P1         -2.2556    0.7933    0.8031 P.3       1 ABC         1.2307 
      4 O1         -2.4756    2.5077    0.6030 O.3       1 ABC        -0.5682 
      5 O2         -2.9598    0.1867    1.9664 O.2       1 ABC        -0.6661 
      6 O3         -2.7024    0.1641   -0.7564 O.3       1 ABC        -0.5682 
      7 C2          1.4363   -0.6754    0.8031 C.3       1 ABC         0.2050 
      8 C3          1.9363    0.0317   -0.4216 C.3       1 ABC         0.2050 
      9 C4          1.4363   -0.6754   -1.6464 C.2       1 ABC         0.4500 
     10 O5          2.0670   -0.6840   -2.7011 O.2       1 ABC        -0.4500 
     11 O7          3.3163    0.0317   -0.4216 O.3       1 ABC        -0.6830 
     12 O6          1.8963   -1.9765    0.8031 O.3       1 ABC        -0.6830 
     13 H11        -0.4271   -1.1893   -0.0869 H         1 ABC         0.0600 
     14 H12        -0.4271   -1.1893    1.6931 H         1 ABC         0.0600 
     15 H2          1.7996   -0.1616    1.6931 H         1 ABC         0.0600 
     16 H3          1.5729    1.0593   -0.4216 H         1 ABC         0.0600 
     17 H4          0.4767   -1.1811   -1.5392 H         1 ABC         0.0000 
     18 HO7         3.7389    0.4848   -1.2065 H         1 ABC         0.4180 
     19 HO6         1.6099   -2.5260    0.0182 H         1 ABC         0.4180 
     20 HO1        -3.0589    2.9419    1.2894 H         1 ABC         0.3800 
     21 H21        -3.3973   -0.5547   -0.7389 H         1 ABC         0.3800 
@<TRIPOS>BOND
     1    1    2 1    
     2    1    7 1    
     3    1   13 1    
     4    1   14 1    
     5    2    3 1    
     6    3    4 1    
     7    3    5 2    
     8    3    6 1    
     9    4   20 1    
    10    6   21 1    
    11    7    8 1    
    12    7   12 1    
    13    7   15 1    
    14    8    9 1    
    15    8   11 1    
    16    8   16 1    
    17    9   10 2    
    18    9   17 1    
    19   11   18 1    
    20   12   19 1    
@<TRIPOS>SUBSTRUCTURE
     1 ABC         1 GROUP             0       ****    0 ROOT    
@<TRIPOS>MOLECULE
E4P
21   20    1
SMALL
USER_CHARGES


@<TRIPOS>ATOM
      1 C1         -1.2764   -1.0479   -0.0374 C.3       1 ABC         0.1529 
      2 O4         -1.7364    0.2532   -0.0374 O.3       1 ABC        -0.4611 
      3 P1         -1.2381    1.2093    1.3283 P.3       1 ABC         1.2307 
      4 O1          0.4808    1.3458    1.0950 O.3       1 ABC        -0.5682 
      5 O2         -1.6673    0.7000    2.6601 O.2       1 ABC        -0.6661 
      6 O3         -1.8096    2.7994    0.9129 O.3       1 ABC        -0.5682 
      7 C2          0.2236   -1.0479   -0.0374 C.3       1 ABC         0.2050 
      8 C3          0.7236   -0.3408   -1.2621 C.3       1 ABC         0.2050 
      9 C4          0.2236   -1.0479   -2.4869 C.2       1 ABC         0.4500 
     10 O5          0.8543   -1.9570   -3.0217 O.2       1 ABC        -0.4500 
     11 O7          2.1036   -0.3408   -1.2621 O.3       1 ABC        -0.6830 
     12 O6          0.6836   -2.3490   -0.0374 O.3       1 ABC        -0.6830 
     13 H11        -1.6397   -1.5617   -0.9274 H         1 ABC         0.0600 
     14 H12        -1.6397   -1.5617    0.8526 H         1 ABC         0.0600 
     15 H2          0.5869   -0.5341    0.8526 H         1 ABC         0.0600 
     16 H3          0.3603    0.6869   -1.2621 H         1 ABC         0.0600 
     17 H4         -0.7360   -0.7022   -2.8713 H         1 ABC         0.0000 
     18 HO7         2.5262    0.1124   -2.0470 H         1 ABC         0.4180 
     19 HO6         1.2517   -2.5964    0.7475 H         1 ABC         0.4180 
     20 HO1         1.0369    1.0693    1.8787 H         1 ABC         0.3800 
     21 H21        -2.3803    3.2381    1.6070 H         1 ABC         0.3800 
@<TRIPOS>BOND
     1    1    2 1    
     2    1    7 1    
     3    1   13 1    
     4    1   14 1    
     5    2    3 1    
     6    3    4 1    
     7    3    5 2    
     8    3    6 1    
     9    4   20 1    
    10    6   21 1    
    11    7    8 1    
    12    7   12 1    
    13    7   15 1    
    14    8    9 1    
    15    8   11 1    
    16    8   16 1    
    17    9   10 2    
    18    9   17 1    
    19   11   18 1    
    20   12   19 1    
@<TRIPOS>SUBSTRUCTURE
     1 ABC         1 GROUP             0       ****    0 ROOT    
@<TRIPOS>MOLECULE
E4P
21   20    1
SMALL
USER_CHARGES


@<TRIPOS>ATOM
      1 C1         -1.1600   -1.0410   -0.4045 C.3       1 ABC         0.1529 
      2 O4         -1.6200    0.2601   -0.4045 O.3       1 ABC        -0.4611 
      3 P1         -1.1217    1.2162    0.9612 P.3       1 ABC         1.2307 
      4 O1         -2.6206    1.5018    1.7974 O.3       1 ABC        -0.5682 
      5 O2         -0.3246    2.4317    0.6380 O.2       1 ABC        -0.6661 
      6 O3         -0.3303    0.0482    1.9795 O.3       1 ABC        -0.5682 
      7 C2          0.3400   -1.0410   -0.4045 C.3       1 ABC         0.2050 
      8 C3          0.8400   -0.3339   -1.6293 C.3       1 ABC         0.2050 
      9 C4          2.3400   -0.3339   -1.6293 C.2       1 ABC         0.4500 
     10 O5          2.9950   -1.2344   -1.1093 O.2       1 ABC        -0.4500 
     11 O7          0.3800    0.9672   -1.6293 O.3       1 ABC        -0.6830 
     12 O6          0.8000   -2.3420   -0.4045 O.3       1 ABC        -0.6830 
     13 H11        -1.5233   -1.5548   -1.2945 H         1 ABC         0.0600 
     14 H12        -1.5233   -1.5548    0.4855 H         1 ABC         0.0600 
     15 H2          0.7033   -0.5271    0.4855 H         1 ABC         0.0600 
     16 H3          0.4767   -0.8477   -2.5192 H         1 ABC         0.0600 
     17 H4          2.8108    0.5175   -2.1208 H         1 ABC         0.0000 
     18 HO7         0.6664    1.5167   -2.4141 H         1 ABC         0.4180 
     19 HO6         1.3681   -2.5894    0.3804 H         1 ABC         0.4180 
     20 HO1        -3.1491    0.6800    2.0103 H         1 ABC         0.3800 
     21 H21         0.5969    0.2936    2.2625 H         1 ABC         0.3800 
@<TRIPOS>BOND
     1    1    2 1    
     2    1    7 1    
     3    1   13 1    
     4    1   14 1    
     5    2    3 1    
     6    3    4 1    
     7    3    5 2    
     8    3    6 1    
     9    4   20 1    
    10    6   21 1    
    11    7    8 1    
    12    7   12 1    
    13    7   15 1    
    14    8    9 1    
    15    8   11 1    
    16    8   16 1    
    17    9   10 2    
    18    9   17 1    
    19   11   18 1    
    20   12   19 1    
@<TRIPOS>SUBSTRUCTURE
     1 ABC         1 GROUP             0       ****    0 ROOT    
@<TRIPOS>MOLECULE
E4P
21   20    1
SMALL
USER_CHARGES


@<TRIPOS>ATOM
      1 C1         -1.1708   -1.0975    0.1601 C.3       1 ABC         0.1529 
      2 O4         -1.6308    0.2036    0.1601 O.3       1 ABC        -0.4611 
      3 P1         -1.1326    1.1597    1.5258 P.3       1 ABC         1.2307 
      4 O1          0.5863    1.2962    1.2924 O.3       1 ABC        -0.5682 
      5 O2         -1.5617    0.6504    2.8575 O.2       1 ABC        -0.6661 
      6 O3         -1.7040    2.7498    1.1104 O.3       1 ABC        -0.5682 
      7 C2          0.3292   -1.0975    0.1601 C.3       1 ABC         0.2050 
      8 C3          0.8292   -0.3904   -1.0646 C.3       1 ABC         0.2050 
      9 C4          0.3292   -1.0975   -2.2894 C.2       1 ABC         0.4500 
     10 O5         -0.7383   -0.8059   -2.8242 O.2       1 ABC        -0.4500 
     11 O7          2.2092   -0.3904   -1.0646 O.3       1 ABC        -0.6830 
     12 O6          0.7892   -2.3986    0.1601 O.3       1 ABC        -0.6830 
     13 H11        -1.5342   -1.6113   -0.7299 H         1 ABC         0.0600 
     14 H12        -1.5342   -1.6113    1.0501 H         1 ABC         0.0600 
     15 H2          0.6925   -0.5837    1.0501 H         1 ABC         0.0600 
     16 H3          0.4658    0.6373   -1.0646 H         1 ABC         0.0600 
     17 H4          0.9749   -1.8870   -2.6738 H         1 ABC         0.0000 
     18 HO7         2.6318    0.0628   -1.8495 H         1 ABC         0.4180 
     19 HO6         0.5028   -2.9481   -0.6248 H         1 ABC         0.4180 
     20 HO1         1.1425    1.0197    2.0762 H         1 ABC         0.3800 
     21 H21        -1.4109    3.0836    0.2144 H         1 ABC         0.3800 
@<TRIPOS>BOND
     1    1    2 1    
     2    1    7 1    
     3    1   13 1    
     4    1   14 1    
     5    2    3 1    
     6    3    4 1    
     7    3    5 2    
     8    3    6 1    
     9    4   20 1    
    10    6   21 1    
    11    7    8 1    
    12    7   12 1    
    13    7   15 1    
    14    8    9 1    
    15    8   11 1    
    16    8   16 1    
    17    9   10 2    
    18    9   17 1    
    19   11   18 1    
    20   12   19 1    
@<TRIPOS>SUBSTRUCTURE
     1 ABC         1 GROUP             0       ****    0 ROOT    
@<TRIPOS>MOLECULE
E4P
21   20    1
SMALL
USER_CHARGES


@<TRIPOS>ATOM
      1 C1         -1.1652   -0.7606    0.5415 C.3       1 ABC         0.1529 
      2 O4         -1.6252    0.5405    0.5415 O.3       1 ABC        -0.4611 
      3 P1         -1.1270    1.4966   -0.8242 P.3       1 ABC         1.2307 
      4 O1         -1.6984    3.0867   -0.4088 O.3       1 ABC        -0.5682 
      5 O2         -1.5561    0.9873   -2.1559 O.2       1 ABC        -0.6661 
      6 O3          0.5919    1.6331   -0.5908 O.3       1 ABC        -0.5682 
      7 C2          0.3348   -0.7606    0.5415 C.3       1 ABC         0.2050 
      8 C3          0.8348   -2.1748    0.5415 C.3       1 ABC         0.2050 
      9 C4          2.3348   -2.1748    0.5415 C.2       1 ABC         0.4500 
     10 O5          2.9898   -1.6549   -0.3591 O.2       1 ABC        -0.4500 
     11 O7          0.3748   -2.8254   -0.5852 O.3       1 ABC        -0.6830 
     12 O6          0.7948   -0.1101    1.6683 O.3       1 ABC        -0.6830 
     13 H11        -1.5286   -1.2744   -0.3485 H         1 ABC         0.0600 
     14 H12        -1.5286   -1.2744    1.4315 H         1 ABC         0.0600 
     15 H2          0.6981   -0.2468   -0.3485 H         1 ABC         0.0600 
     16 H3          0.4714   -2.6886    1.4315 H         1 ABC         0.0600 
     17 H4          2.8055   -2.6664    1.3929 H         1 ABC         0.0000 
     18 HO7        -0.1934   -2.2693   -1.1919 H         1 ABC         0.4180 
     19 HO6         0.5084   -0.5150    2.5366 H         1 ABC         0.4180 
     20 HO1        -2.2691    3.5254   -1.1029 H         1 ABC         0.3800 
     21 H21         0.8707    1.9759    0.3063 H         1 ABC         0.3800 
@<TRIPOS>BOND
     1    1    2 1    
     2    1    7 1    
     3    1   13 1    
     4    1   14 1    
     5    2    3 1    
     6    3    4 1    
     7    3    5 2    
     8    3    6 1    
     9    4   20 1    
    10    6   21 1    
    11    7    8 1    
    12    7   12 1    
    13    7   15 1    
    14    8    9 1    
    15    8   11 1    
    16    8   16 1    
    17    9   10 2    
    18    9   17 1    
    19   11   18 1    
    20   12   19 1    
@<TRIPOS>SUBSTRUCTURE
     1 ABC         1 GROUP             0       ****    0 ROOT    
@<TRIPOS>MOLECULE
E4P
21   20    1
SMALL
USER_CHARGES


@<TRIPOS>ATOM
      1 C1         -0.9684   -0.5762    0.2805 C.3       1 ABC         0.1529 
      2 O4         -1.4284    0.7249    0.2805 O.3       1 ABC        -0.4611 
      3 P1         -0.9301    1.6810   -1.0852 P.3       1 ABC         1.2307 
      4 O1         -1.5016    3.2711   -0.6698 O.3       1 ABC        -0.5682 
      5 O2         -1.3593    1.1716   -2.4170 O.2       1 ABC        -0.6661 
      6 O3          0.7887    1.8175   -0.8519 O.3       1 ABC        -0.5682 
      7 C2          0.5316   -0.5762    0.2805 C.3       1 ABC         0.2050 
      8 C3          1.0316   -1.9904    0.2805 C.3       1 ABC         0.2050 
      9 C4          0.5316   -2.6975   -0.9443 C.2       1 ABC         0.4500 
     10 O5         -0.5358   -3.3065   -0.9592 O.2       1 ABC        -0.4500 
     11 O7          0.5716   -2.6410    1.4072 O.3       1 ABC        -0.6830 
     12 O6          0.9916    0.0743    1.4072 O.3       1 ABC        -0.6830 
     13 H11        -1.3317   -1.0900   -0.6095 H         1 ABC         0.0600 
     14 H12        -1.3317   -1.0900    1.1704 H         1 ABC         0.0600 
     15 H2          0.8949   -0.0624   -0.6095 H         1 ABC         0.0600 
     16 H3          2.1216   -1.9904    0.2805 H         1 ABC         0.0600 
     17 H4          1.1774   -2.6357   -1.8202 H         1 ABC         0.0000 
     18 HO7         0.8580   -3.5954    1.4907 H         1 ABC         0.4180 
     19 HO6         1.5597    0.8778    1.2290 H         1 ABC         0.4180 
     20 HO1        -1.2085    3.6048    0.2261 H         1 ABC         0.3800 
     21 H21         1.0675    2.1603    0.0452 H         1 ABC         0.3800 
@<TRIPOS>BOND
     1    1    2 1    
     2    1    7 1    
     3    1   13 1    
     4    1   14 1    
     5    2    3 1    
     6    3    4 1    
     7    3    5 2    
     8    3    6 1    
     9    4   20 1    
    10    6   21 1    
    11    7    8 1    
    12    7   12 1    
    13    7   15 1    
    14    8    9 1    
    15    8   11 1    
    16    8   16 1    
    17    9   10 2    
    18    9   17 1    
    19   11   18 1    
    20   12   19 1    
@<TRIPOS>SUBSTRUCTURE
     1 ABC         1 GROUP             0       ****    0 ROOT    
@<TRIPOS>MOLECULE
E4P
21   20    1
SMALL
USER_CHARGES


@<TRIPOS>ATOM
      1 C1         -0.3212   -1.2441   -1.1819 C.3       1 ABC         0.1529 
      2 O4         -0.7812    0.0570   -1.1819 O.3       1 ABC        -0.4611 
      3 P1         -1.7698    0.4874    0.1838 P.3       1 ABC         1.2307 
      4 O1         -0.6457    0.4136    1.5099 O.3       1 ABC        -0.5682 
      5 O2         -3.0155   -0.3106    0.3522 O.2       1 ABC        -0.6661 
      6 O3         -1.9979    2.1989   -0.0315 O.3       1 ABC        -0.5682 
      7 C2          1.1788   -1.2441   -1.1819 C.3       1 ABC         0.2050 
      8 C3          1.6788   -0.5370    0.0428 C.3       1 ABC         0.2050 
      9 C4          1.1788   -1.2441    1.2676 C.2       1 ABC         0.4500 
     10 O5          1.8095   -1.2527    2.3223 O.2       1 ABC        -0.4500 
     11 O7          1.2188    0.7641    0.0428 O.3       1 ABC        -0.6830 
     12 O6          1.6388   -0.5936   -2.3087 O.3       1 ABC        -0.6830 
     13 H11        -0.6846   -1.7580   -2.0719 H         1 ABC         0.0600 
     14 H12        -0.6846   -1.7580   -0.2920 H         1 ABC         0.0600 
     15 H2          1.5421   -2.2718   -1.1819 H         1 ABC         0.0600 
     16 H3          2.7688   -0.5370    0.0428 H         1 ABC         0.0600 
     17 H4          0.2191   -1.7498    1.1604 H         1 ABC         0.0000 
     18 HO7         1.5051    1.3136    0.8277 H         1 ABC         0.4180 
     19 HO6         2.2069   -1.1496   -2.9154 H         1 ABC         0.4180 
     20 HO1        -0.9332   -0.1612    2.2761 H         1 ABC         0.3800 
     21 H21        -2.9507    2.5025   -0.0238 H         1 ABC         0.3800 
@<TRIPOS>BOND
     1    1    2 1    
     2    1    7 1    
     3    1   13 1    
     4    1   14 1    
     5    2    3 1    
     6    3    4 1    
     7    3    5 2    
     8    3    6 1    
     9    4   20 1    
    10    6   21 1    
    11    7    8 1    
    12    7   12 1    
    13    7   15 1    
    14    8    9 1    
    15    8   11 1    
    16    8   16 1    
    17    9   10 2    
    18    9   17 1    
    19   11   18 1    
    20   12   19 1    
@<TRIPOS>SUBSTRUCTURE
     1 ABC         1 GROUP             0       ****    0 ROOT    
@<TRIPOS>MOLECULE
E4P
21   20    1
SMALL
USER_CHARGES


@<TRIPOS>ATOM
      1 C1         -0.7714   -0.2770    0.6189 C.3       1 ABC         0.1529 
      2 O4         -1.2314    1.0241    0.6189 O.3       1 ABC        -0.4611 
      3 P1         -0.7331    1.9802   -0.7468 P.3       1 ABC         1.2307 
      4 O1          0.0583    0.8122   -1.7652 O.3       1 ABC        -0.5682 
      5 O2          0.0640    3.1957   -0.4237 O.2       1 ABC        -0.6661 
      6 O3         -2.2320    2.2658   -1.5831 O.3       1 ABC        -0.5682 
      7 C2          0.7286   -0.2770    0.6189 C.3       1 ABC         0.2050 
      8 C3          1.2286   -1.6912    0.6189 C.3       1 ABC         0.2050 
      9 C4          0.7286   -2.3983   -0.6059 C.2       1 ABC         0.4500 
     10 O5          0.0201   -1.8405   -1.4409 O.2       1 ABC        -0.4500 
     11 O7          0.7686   -2.3417    1.7456 O.3       1 ABC        -0.6830 
     12 O6          1.1886    0.3736    1.7456 O.3       1 ABC        -0.6830 
     13 H11        -1.1347   -0.7908   -0.2711 H         1 ABC         0.0600 
     14 H12        -1.1347   -0.7908    1.5088 H         1 ABC         0.0600 
     15 H2          1.0920    0.2369   -0.2711 H         1 ABC         0.0600 
     16 H3          2.3186   -1.6912    0.6189 H         1 ABC         0.0600 
     17 H4          1.0351   -3.4395   -0.7065 H         1 ABC         0.0000 
     18 HO7         1.0550   -3.2962    1.8291 H         1 ABC         0.4180 
     19 HO6         0.9023   -0.0314    2.6139 H         1 ABC         0.4180 
     20 HO1         0.9855    1.0576   -2.0481 H         1 ABC         0.3800 
     21 H21        -2.7605    1.4440   -1.7959 H         1 ABC         0.3800 
@<TRIPOS>BOND
     1    1    2 1    
     2    1    7 1    
     3    1   13 1    
     4    1   14 1    
     5    2    3 1    
     6    3    4 1    
     7    3    5 2    
     8    3    6 1    
     9    4   20 1    
    10    6   21 1    
    11    7    8 1    
    12    7   12 1    
    13    7   15 1    
    14    8    9 1    
    15    8   11 1    
    16    8   16 1    
    17    9   10 2    
    18    9   17 1    
    19   11   18 1    
    20   12   19 1    
@<TRIPOS>SUBSTRUCTURE
     1 ABC         1 GROUP             0       ****    0 ROOT    
@<TRIPOS>MOLECULE
E4P
21   20    1
SMALL
USER_CHARGES


@<TRIPOS>ATOM
      1 C1         -0.0233   -0.8578    0.5185 C.3       1 ABC         0.1529 
      2 O4         -0.4833    0.4432    0.5185 O.3       1 ABC        -0.4611 
      3 P1         -2.2152    0.6109    0.5185 P.3       1 ABC         1.2307 
      4 O1         -2.4351    2.3253    0.3183 O.3       1 ABC        -0.5682 
      5 O2         -2.9194    0.0043    1.6818 O.2       1 ABC        -0.6661 
      6 O3         -2.6620   -0.0183   -1.0410 O.3       1 ABC        -0.5682 
      7 C2          1.4767   -0.8578    0.5185 C.3       1 ABC         0.2050 
      8 C3          1.9767   -0.1507   -0.7063 C.3       1 ABC         0.2050 
      9 C4          3.4767   -0.1507   -0.7063 C.2       1 ABC         0.4500 
     10 O5          4.1317   -1.0513   -1.2262 O.2       1 ABC        -0.4500 
     11 O7          1.5167    1.1503   -0.7063 O.3       1 ABC        -0.6830 
     12 O6          1.9367   -2.1589    0.5185 O.3       1 ABC        -0.6830 
     13 H11        -0.3867   -1.3717   -0.3715 H         1 ABC         0.0600 
     14 H12        -0.3867   -1.3717    1.4085 H         1 ABC         0.0600 
     15 H2          1.8400   -0.3440    1.4085 H         1 ABC         0.0600 
     16 H3          1.6133   -0.6646   -1.5962 H         1 ABC         0.0600 
     17 H4          3.9474    0.7007   -0.2147 H         1 ABC         0.0000 
     18 HO7         0.9486    1.3977    0.0786 H         1 ABC         0.4180 
     19 HO6         1.6503   -2.7084   -0.2664 H         1 ABC         0.4180 
     20 HO1        -3.0185    2.7595    1.0048 H         1 ABC         0.3800 
     21 H21        -3.3569   -0.7371   -1.0235 H         1 ABC         0.3800 
@<TRIPOS>BOND
     1    1    2 1    
     2    1    7 1    
     3    1   13 1    
     4    1   14 1    
     5    2    3 1    
     6    3    4 1    
     7    3    5 2    
     8    3    6 1    
     9    4   20 1    
    10    6   21 1    
    11    7    8 1    
    12    7   12 1    
    13    7   15 1    
    14    8    9 1    
    15    8   11 1    
    16    8   16 1    
    17    9   10 2    
    18    9   17 1    
    19   11   18 1    
    20   12   19 1    
@<TRIPOS>SUBSTRUCTURE
     1 ABC         1 GROUP             0       ****    0 ROOT    
@<TRIPOS>MOLECULE
E4P
21   20    1
SMALL
USER_CHARGES


@<TRIPOS>ATOM
      1 C1         -0.0702   -0.6795    0.5918 C.3       1 ABC         0.1529 
      2 O4         -0.5302    0.6216    0.5918 O.3       1 ABC        -0.4611 
      3 P1         -2.2621    0.7893    0.5918 P.3       1 ABC         1.2307 
      4 O1         -2.5799    1.4924   -0.9677 O.3       1 ABC        -0.5682 
      5 O2         -2.8369    1.5197    1.7551 O.2       1 ABC        -0.6661 
      6 O3         -2.8068   -0.8511    0.3917 O.3       1 ABC        -0.5682 
      7 C2          1.4298   -0.6795    0.5918 C.3       1 ABC         0.2050 
      8 C3          1.9298    0.0276   -0.6329 C.3       1 ABC         0.2050 
      9 C4          3.4298    0.0276   -0.6329 C.2       1 ABC         0.4500 
     10 O5          4.0848   -0.4923   -1.5335 O.2       1 ABC        -0.4500 
     11 O7          1.4698    1.3287   -0.6329 O.3       1 ABC        -0.6830 
     12 O6          1.8898   -1.9805    0.5918 O.3       1 ABC        -0.6830 
     13 H11        -0.4335   -1.1933   -0.2982 H         1 ABC         0.0600 
     14 H12        -0.4335   -1.1933    1.4818 H         1 ABC         0.0600 
     15 H2          1.7931   -0.1656    1.4818 H         1 ABC         0.0600 
     16 H3          1.5665   -0.4862   -1.5229 H         1 ABC         0.0600 
     17 H4          3.9005    0.5192    0.2185 H         1 ABC         0.0000 
     18 HO7         0.9017    1.5761    0.1520 H         1 ABC         0.4180 
     19 HO6         1.6034   -2.5300   -0.1931 H         1 ABC         0.4180 
     20 HO1        -2.1901    0.9952   -1.7429 H         1 ABC         0.3800 
     21 H21        -3.4626   -1.1654    1.0781 H         1 ABC         0.3800 
@<TRIPOS>BOND
     1    1    2 1    
     2    1    7 1    
     3    1   13 1    
     4    1   14 1    
     5    2    3 1    
     6    3    4 1    
     7    3    5 2    
     8    3    6 1    
     9    4   20 1    
    10    6   21 1    
    11    7    8 1    
    12    7   12 1    
    13    7   15 1    
    14    8    9 1    
    15    8   11 1    
    16    8   16 1    
    17    9   10 2    
    18    9   17 1    
    19   11   18 1    
    20   12   19 1    
@<TRIPOS>SUBSTRUCTURE
     1 ABC         1 GROUP             0       ****    0 ROOT    
@<TRIPOS>MOLECULE
E4P
21   20    1
SMALL
USER_CHARGES


@<TRIPOS>ATOM
      1 C1         -0.0702   -0.7682    0.5030 C.3       1 ABC         0.1529 
      2 O4         -0.5302    0.5328    0.5030 O.3       1 ABC        -0.4611 
      3 P1         -2.2621    0.7005    0.5030 P.3       1 ABC         1.2307 
      4 O1         -2.5799    1.4037   -1.0565 O.3       1 ABC        -0.5682 
      5 O2         -2.8369    1.4309    1.6663 O.2       1 ABC        -0.6661 
      6 O3         -2.8068   -0.9399    0.3029 O.3       1 ABC        -0.5682 
      7 C2          1.4298   -0.7682    0.5030 C.3       1 ABC         0.2050 
      8 C3          1.9298   -0.0611   -0.7217 C.3       1 ABC         0.2050 
      9 C4          3.4298   -0.0611   -0.7217 C.2       1 ABC         0.4500 
     10 O5          4.0848    0.8394   -0.2018 O.2       1 ABC        -0.4500 
     11 O7          1.4698    1.2399   -0.7217 O.3       1 ABC        -0.6830 
     12 O6          1.8898   -2.0693    0.5030 O.3       1 ABC        -0.6830 
     13 H11        -0.4335   -1.2821   -0.3869 H         1 ABC         0.0600 
     14 H12        -0.4335   -1.2821    1.3930 H         1 ABC         0.0600 
     15 H2          1.7931   -0.2544    1.3930 H         1 ABC         0.0600 
     16 H3          1.5665   -0.5750   -1.6117 H         1 ABC         0.0600 
     17 H4          3.9005   -0.9125   -1.2133 H         1 ABC         0.0000 
     18 HO7         0.9017    1.4873    0.0632 H         1 ABC         0.4180 
     19 HO6         1.6034   -2.6188   -0.2818 H         1 ABC         0.4180 
     20 HO1        -2.1901    0.9065   -1.8316 H         1 ABC         0.3800 
     21 H21        -3.4626   -1.2542    0.9893 H         1 ABC         0.3800 
@<TRIPOS>BOND
     1    1    2 1    
     2    1    7 1    
     3    1   13 1    
     4    1   14 1    
     5    2    3 1    
     6    3    4 1    
     7    3    5 2    
     8    3    6 1    
     9    4   20 1    
    10    6   21 1    
    11    7    8 1    
    12    7   12 1    
    13    7   15 1    
    14    8    9 1    
    15    8   11 1    
    16    8   16 1    
    17    9   10 2    
    18    9   17 1    
    19   11   18 1    
    20   12   19 1    
@<TRIPOS>SUBSTRUCTURE
     1 ABC         1 GROUP             0       ****    0 ROOT    
@<TRIPOS>MOLECULE
E4P
21   20    1
SMALL
USER_CHARGES


@<TRIPOS>ATOM
      1 C1         -0.2865   -1.0195   -0.0626 C.3       1 ABC         0.1529 
      2 O4         -0.7465    0.2816   -0.0626 O.3       1 ABC        -0.4611 
      3 P1         -1.7350    0.7120    1.3031 P.3       1 ABC         1.2307 
      4 O1         -2.2900    2.3080    0.8877 O.3       1 ABC        -0.5682 
      5 O2         -1.0811    0.5856    2.6349 O.2       1 ABC        -0.6661 
      6 O3         -3.1577   -0.2622    1.0698 O.3       1 ABC        -0.5682 
      7 C2          1.2135   -1.0195   -0.0626 C.3       1 ABC         0.2050 
      8 C3          1.7135   -0.3124   -1.2873 C.3       1 ABC         0.2050 
      9 C4          3.2135   -0.3124   -1.2873 C.2       1 ABC         0.4500 
     10 O5          3.8685   -0.8324   -2.1879 O.2       1 ABC        -0.4500 
     11 O7          1.2535    0.9887   -1.2873 O.3       1 ABC        -0.6830 
     12 O6          1.6735   -2.3206   -0.0626 O.3       1 ABC        -0.6830 
     13 H11        -0.6498   -1.5333   -0.9526 H         1 ABC         0.0600 
     14 H12        -0.6498   -1.5333    0.8274 H         1 ABC         0.0600 
     15 H2          1.5768   -0.5057    0.8274 H         1 ABC         0.0600 
     16 H3          1.3502   -0.8262   -2.1773 H         1 ABC         0.0600 
     17 H4          3.6843    0.1791   -0.4359 H         1 ABC         0.0000 
     18 HO7         0.6854    1.2361   -0.5024 H         1 ABC         0.4180 
     19 HO6         1.3871   -2.8701   -0.8475 H         1 ABC         0.4180 
     20 HO1        -2.1218    3.0079    1.5819 H         1 ABC         0.3800 
     21 H21        -3.5900   -0.1708    0.1727 H         1 ABC         0.3800 
@<TRIPOS>BOND
     1    1    2 1    
     2    1    7 1    
     3    1   13 1    
     4    1   14 1    
     5    2    3 1    
     6    3    4 1    
     7    3    5 2    
     8    3    6 1    
     9    4   20 1    
    10    6   21 1    
    11    7    8 1    
    12    7   12 1    
    13    7   15 1    
    14    8    9 1    
    15    8   11 1    
    16    8   16 1    
    17    9   10 2    
    18    9   17 1    
    19   11   18 1    
    20   12   19 1    
@<TRIPOS>SUBSTRUCTURE
     1 ABC         1 GROUP             0       ****    0 ROOT    
@<TRIPOS>MOLECULE
E4P
21   20    1
SMALL
USER_CHARGES


@<TRIPOS>ATOM
      1 C1         -0.8756   -0.2967    0.5989 C.3       1 ABC         0.1529 
      2 O4         -1.3356    1.0044    0.5989 O.3       1 ABC        -0.4611 
      3 P1         -0.8374    1.9605   -0.7668 P.3       1 ABC         1.2307 
      4 O1         -0.0459    0.7925   -1.7851 O.3       1 ABC        -0.5682 
      5 O2         -0.0402    3.1760   -0.4436 O.2       1 ABC        -0.6661 
      6 O3         -2.3363    2.2461   -1.6031 O.3       1 ABC        -0.5682 
      7 C2          0.6244   -0.2967    0.5989 C.3       1 ABC         0.2050 
      8 C3          1.1244   -1.7109    0.5989 C.3       1 ABC         0.2050 
      9 C4          0.6244   -2.4180   -0.6259 C.2       1 ABC         0.4500 
     10 O5          1.2551   -3.3272   -1.1607 O.2       1 ABC        -0.4500 
     11 O7          0.6644   -2.3614    1.7256 O.3       1 ABC        -0.6830 
     12 O6          1.0844    0.3539    1.7256 O.3       1 ABC        -0.6830 
     13 H11        -1.2390   -0.8105   -0.2911 H         1 ABC         0.0600 
     14 H12        -1.2390   -0.8105    1.4889 H         1 ABC         0.0600 
     15 H2          0.9877    0.2171   -0.2911 H         1 ABC         0.0600 
     16 H3          2.2144   -1.7109    0.5989 H         1 ABC         0.0600 
     17 H4         -0.3352   -2.0723   -1.0102 H         1 ABC         0.0000 
     18 HO7         0.9507   -3.3159    1.8091 H         1 ABC         0.4180 
     19 HO6         0.7980   -0.0511    2.5940 H         1 ABC         0.4180 
     20 HO1         0.8813    1.0379   -2.0681 H         1 ABC         0.3800 
     21 H21        -2.5359    3.2067   -1.7965 H         1 ABC         0.3800 
@<TRIPOS>BOND
     1    1    2 1    
     2    1    7 1    
     3    1   13 1    
     4    1   14 1    
     5    2    3 1    
     6    3    4 1    
     7    3    5 2    
     8    3    6 1    
     9    4   20 1    
    10    6   21 1    
    11    7    8 1    
    12    7   12 1    
    13    7   15 1    
    14    8    9 1    
    15    8   11 1    
    16    8   16 1    
    17    9   10 2    
    18    9   17 1    
    19   11   18 1    
    20   12   19 1    
@<TRIPOS>SUBSTRUCTURE
     1 ABC         1 GROUP             0       ****    0 ROOT    
@<TRIPOS>MOLECULE
E4P
21   20    1
SMALL
USER_CHARGES


@<TRIPOS>ATOM
      1 C1         -0.2048   -1.3792   -0.2107 C.3       1 ABC         0.1529 
      2 O4         -0.6648   -0.0781   -0.2107 O.3       1 ABC        -0.4611 
      3 P1         -2.3967    0.0895   -0.2107 P.3       1 ABC         1.2307 
      4 O1         -2.6811    1.1378    1.1487 O.3       1 ABC        -0.5682 
      5 O2         -3.1656   -1.1856   -0.2107 O.2       1 ABC        -0.6661 
      6 O3         -2.6811    1.1378   -1.5701 O.3       1 ABC        -0.5682 
      7 C2          1.2952   -1.3792   -0.2107 C.3       1 ABC         0.2050 
      8 C3          1.7952   -0.6721    1.0141 C.3       1 ABC         0.2050 
      9 C4          1.2952    0.7421    1.0141 C.2       1 ABC         0.4500 
     10 O5          2.0573    1.7063    1.0141 O.2       1 ABC        -0.4500 
     11 O7          3.1752   -0.6721    1.0141 O.3       1 ABC        -0.6830 
     12 O6          1.7552   -0.7286   -1.3375 O.3       1 ABC        -0.6830 
     13 H11        -0.5681   -1.8930   -1.1007 H         1 ABC         0.0600 
     14 H12        -0.5681   -1.8930    0.6793 H         1 ABC         0.0600 
     15 H2          1.6585   -2.4068   -0.2107 H         1 ABC         0.0600 
     16 H3          1.4319   -1.1859    1.9040 H         1 ABC         0.0600 
     17 H4          0.2114    0.8583    1.0141 H         1 ABC         0.0000 
     18 HO7         3.5978   -0.2189    1.7989 H         1 ABC         0.4180 
     19 HO6         2.3233   -1.2847   -1.9442 H         1 ABC         0.4180 
     20 HO1        -2.1605    1.9916    1.1402 H         1 ABC         0.3800 
     21 H21        -3.3398    0.7932   -2.2389 H         1 ABC         0.3800 
@<TRIPOS>BOND
     1    1    2 1    
     2    1    7 1    
     3    1   13 1    
     4    1   14 1    
     5    2    3 1    
     6    3    4 1    
     7    3    5 2    
     8    3    6 1    
     9    4   20 1    
    10    6   21 1    
    11    7    8 1    
    12    7   12 1    
    13    7   15 1    
    14    8    9 1    
    15    8   11 1    
    16    8   16 1    
    17    9   10 2    
    18    9   17 1    
    19   11   18 1    
    20   12   19 1    
@<TRIPOS>SUBSTRUCTURE
     1 ABC         1 GROUP             0       ****    0 ROOT    
@<TRIPOS>MOLECULE
E4P
21   20    1
SMALL
USER_CHARGES


@<TRIPOS>ATOM
      1 C1          0.0270   -0.9856    0.3822 C.3       1 ABC         0.1529 
      2 O4         -0.4330    0.3155    0.3822 O.3       1 ABC        -0.4611 
      3 P1         -2.1649    0.4831    0.3822 P.3       1 ABC         1.2307 
      4 O1         -2.6116   -0.1460    1.9418 O.3       1 ABC        -0.5682 
      5 O2         -2.8691   -0.1235   -0.7811 O.2       1 ABC        -0.6661 
      6 O3         -2.3848    2.1975    0.5824 O.3       1 ABC        -0.5682 
      7 C2          1.5270   -0.9856    0.3822 C.3       1 ABC         0.2050 
      8 C3          2.0270   -0.2785   -0.8425 C.3       1 ABC         0.2050 
      9 C4          1.5270    1.1357   -0.8425 C.2       1 ABC         0.4500 
     10 O5          2.2891    2.0999   -0.8425 O.2       1 ABC        -0.4500 
     11 O7          1.5670   -0.9290   -1.9693 O.3       1 ABC        -0.6830 
     12 O6          1.9870   -2.2867    0.3822 O.3       1 ABC        -0.6830 
     13 H11        -0.3363   -1.4994   -0.5078 H         1 ABC         0.0600 
     14 H12        -0.3363   -1.4994    1.2722 H         1 ABC         0.0600 
     15 H2          1.8904   -0.4718    1.2722 H         1 ABC         0.0600 
     16 H3          3.1170   -0.2785   -0.8425 H         1 ABC         0.0600 
     17 H4          0.4432    1.2519   -0.8425 H         1 ABC         0.0000 
     18 HO7         1.8534   -0.5240   -2.8376 H         1 ABC         0.4180 
     19 HO6         1.7007   -2.8362   -0.4027 H         1 ABC         0.4180 
     20 HO1        -2.1337    0.2672    2.7169 H         1 ABC         0.3800 
     21 H21        -1.9083    2.5961    1.3660 H         1 ABC         0.3800 
@<TRIPOS>BOND
     1    1    2 1    
     2    1    7 1    
     3    1   13 1    
     4    1   14 1    
     5    2    3 1    
     6    3    4 1    
     7    3    5 2    
     8    3    6 1    
     9    4   20 1    
    10    6   21 1    
    11    7    8 1    
    12    7   12 1    
    13    7   15 1    
    14    8    9 1    
    15    8   11 1    
    16    8   16 1    
    17    9   10 2    
    18    9   17 1    
    19   11   18 1    
    20   12   19 1    
@<TRIPOS>SUBSTRUCTURE
     1 ABC         1 GROUP             0       ****    0 ROOT    
@<TRIPOS>MOLECULE
E4P
21   20    1
SMALL
USER_CHARGES


@<TRIPOS>ATOM
      1 C1          0.2087   -0.8771   -0.2194 C.3       1 ABC         0.1529 
      2 O4         -0.2513    0.4239   -0.2194 O.3       1 ABC        -0.4611 
      3 P1         -1.9832    0.5916   -0.2194 P.3       1 ABC         1.2307 
      4 O1         -2.3010    1.2947   -1.7789 O.3       1 ABC        -0.5682 
      5 O2         -2.5580    1.3220    0.9439 O.2       1 ABC        -0.6661 
      6 O3         -2.5279   -1.0488   -0.4196 O.3       1 ABC        -0.5682 
      7 C2          1.7087   -0.8771   -0.2194 C.3       1 ABC         0.2050 
      8 C3          2.2087   -0.1700    1.0053 C.3       1 ABC         0.2050 
      9 C4          1.7087   -0.8771    2.2301 C.2       1 ABC         0.4500 
     10 O5          1.9806   -2.0525    2.4647 O.2       1 ABC        -0.4500 
     11 O7          1.7487    1.1310    1.0053 O.3       1 ABC        -0.6830 
     12 O6          2.1687   -0.2266   -1.3462 O.3       1 ABC        -0.6830 
     13 H11        -0.1546   -1.3910   -1.1094 H         1 ABC         0.0600 
     14 H12        -0.1546   -1.3910    0.6706 H         1 ABC         0.0600 
     15 H2          2.0720   -1.9048   -0.2194 H         1 ABC         0.0600 
     16 H3          3.2987   -0.1700    1.0053 H         1 ABC         0.0600 
     17 H4          1.0883   -0.2798    2.8982 H         1 ABC         0.0000 
     18 HO7         1.1806    1.3784    0.2204 H         1 ABC         0.4180 
     19 HO6         2.7368   -0.7826   -1.9529 H         1 ABC         0.4180 
     20 HO1        -2.8452    2.1335   -1.7614 H         1 ABC         0.3800 
     21 H21        -3.1836   -1.3631    0.2668 H         1 ABC         0.3800 
@<TRIPOS>BOND
     1    1    2 1    
     2    1    7 1    
     3    1   13 1    
     4    1   14 1    
     5    2    3 1    
     6    3    4 1    
     7    3    5 2    
     8    3    6 1    
     9    4   20 1    
    10    6   21 1    
    11    7    8 1    
    12    7   12 1    
    13    7   15 1    
    14    8    9 1    
    15    8   11 1    
    16    8   16 1    
    17    9   10 2    
    18    9   17 1    
    19   11   18 1    
    20   12   19 1    
@<TRIPOS>SUBSTRUCTURE
     1 ABC         1 GROUP             0       ****    0 ROOT    
@<TRIPOS>MOLECULE
E4P
21   20    1
SMALL
USER_CHARGES


@<TRIPOS>ATOM
      1 C1         -0.1194   -1.0630    0.0835 C.3       1 ABC         0.1529 
      2 O4         -0.5794    0.2381    0.0835 O.3       1 ABC        -0.4611 
      3 P1         -1.5679    0.6686    1.4492 P.3       1 ABC         1.2307 
      4 O1         -2.1229    2.2645    1.0338 O.3       1 ABC        -0.5682 
      5 O2         -0.9139    0.5421    2.7809 O.2       1 ABC        -0.6661 
      6 O3         -2.9906   -0.3057    1.2158 O.3       1 ABC        -0.5682 
      7 C2          1.3806   -1.0630    0.0835 C.3       1 ABC         0.2050 
      8 C3          1.8806   -0.3559   -1.1413 C.3       1 ABC         0.2050 
      9 C4          1.3806    1.0583   -1.1413 C.2       1 ABC         0.4500 
     10 O5          1.6525    1.8492   -2.0418 O.2       1 ABC        -0.4500 
     11 O7          1.4206   -1.0064   -2.2680 O.3       1 ABC        -0.6830 
     12 O6          1.8406   -2.3641    0.0835 O.3       1 ABC        -0.6830 
     13 H11        -0.4827   -1.5768   -0.8065 H         1 ABC         0.0600 
     14 H12        -0.4827   -1.5768    0.9735 H         1 ABC         0.0600 
     15 H2          1.7440   -0.5492    0.9735 H         1 ABC         0.0600 
     16 H3          2.9706   -0.3559   -1.1413 H         1 ABC         0.0600 
     17 H4          0.7603    1.3383   -0.2899 H         1 ABC         0.0000 
     18 HO7         1.7070   -0.6014   -3.1363 H         1 ABC         0.4180 
     19 HO6         2.4088   -2.6115    0.8684 H         1 ABC         0.4180 
     20 HO1        -1.9547    2.9644    1.7279 H         1 ABC         0.3800 
     21 H21        -3.4229   -0.2143    0.3187 H         1 ABC         0.3800 
@<TRIPOS>BOND
     1    1    2 1    
     2    1    7 1    
     3    1   13 1    
     4    1   14 1    
     5    2    3 1    
     6    3    4 1    
     7    3    5 2    
     8    3    6 1    
     9    4   20 1    
    10    6   21 1    
    11    7    8 1    
    12    7   12 1    
    13    7   15 1    
    14    8    9 1    
    15    8   11 1    
    16    8   16 1    
    17    9   10 2    
    18    9   17 1    
    19   11   18 1    
    20   12   19 1    
@<TRIPOS>SUBSTRUCTURE
     1 ABC         1 GROUP             0       ****    0 ROOT    
@<TRIPOS>MOLECULE
E4P
21   20    1
SMALL
USER_CHARGES


@<TRIPOS>ATOM
      1 C1         -0.6137   -0.4056    0.5477 C.3       1 ABC         0.1529 
      2 O4         -1.0737    0.8955    0.5477 O.3       1 ABC        -0.4611 
      3 P1         -0.5754    1.8516   -0.8180 P.3       1 ABC         1.2307 
      4 O1         -1.4032    1.0877   -2.1441 O.3       1 ABC        -0.5682 
      5 O2          0.8951    2.0139   -0.9864 O.2       1 ABC        -0.6661 
      6 O3         -1.4737    3.3262   -0.6027 O.3       1 ABC        -0.5682 
      7 C2          0.8863   -0.4056    0.5477 C.3       1 ABC         0.2050 
      8 C3          1.3863   -1.8198    0.5477 C.3       1 ABC         0.2050 
      9 C4          0.8863   -2.5269   -0.6770 C.2       1 ABC         0.4500 
     10 O5         -0.1811   -2.2353   -1.2118 O.2       1 ABC        -0.4500 
     11 O7          0.9263   -2.4704    1.6745 O.3       1 ABC        -0.6830 
     12 O6          1.3463    0.2449    1.6745 O.3       1 ABC        -0.6830 
     13 H11        -0.9770   -0.9194   -0.3422 H         1 ABC         0.0600 
     14 H12        -0.9770   -0.9194    1.4377 H         1 ABC         0.0600 
     15 H2          1.2497    0.1082   -0.3422 H         1 ABC         0.0600 
     16 H3          2.4763   -1.8198    0.5477 H         1 ABC         0.0600 
     17 H4          1.5321   -3.3164   -1.0614 H         1 ABC         0.0000 
     18 HO7         1.2127   -3.4248    1.7579 H         1 ABC         0.4180 
     19 HO6         1.0600   -0.1600    2.5428 H         1 ABC         0.4180 
     20 HO1        -0.8184    0.8213   -2.9103 H         1 ABC         0.3800 
     21 H21        -2.4602    3.2075   -0.4904 H         1 ABC         0.3800 
@<TRIPOS>BOND
     1    1    2 1    
     2    1    7 1    
     3    1   13 1    
     4    1   14 1    
     5    2    3 1    
     6    3    4 1    
     7    3    5 2    
     8    3    6 1    
     9    4   20 1    
    10    6   21 1    
    11    7    8 1    
    12    7   12 1    
    13    7   15 1    
    14    8    9 1    
    15    8   11 1    
    16    8   16 1    
    17    9   10 2    
    18    9   17 1    
    19   11   18 1    
    20   12   19 1    
@<TRIPOS>SUBSTRUCTURE
     1 ABC         1 GROUP             0       ****    0 ROOT    
@<TRIPOS>MOLECULE
E4P
21   20    1
SMALL
USER_CHARGES


@<TRIPOS>ATOM
      1 C1         -0.2454   -1.2498   -1.0889 C.3       1 ABC         0.1529 
      2 O4         -0.7054    0.0513   -1.0889 O.3       1 ABC        -0.4611 
      3 P1         -1.6939    0.4817    0.2768 P.3       1 ABC         1.2307 
      4 O1         -0.5699    0.4079    1.6030 O.3       1 ABC        -0.5682 
      5 O2         -2.9397   -0.3163    0.4453 O.2       1 ABC        -0.6661 
      6 O3         -1.9221    2.1932    0.0616 O.3       1 ABC        -0.5682 
      7 C2          1.2546   -1.2498   -1.0889 C.3       1 ABC         0.2050 
      8 C3          1.7546   -0.5427    0.1359 C.3       1 ABC         0.2050 
      9 C4          1.2546   -1.2498    1.3606 C.2       1 ABC         0.4500 
     10 O5          1.5265   -0.8653    2.4958 O.2       1 ABC        -0.4500 
     11 O7          1.2946    0.7584    0.1359 O.3       1 ABC        -0.6830 
     12 O6          1.7146   -0.5993   -2.2156 O.3       1 ABC        -0.6830 
     13 H11        -0.6087   -1.7636   -1.9788 H         1 ABC         0.0600 
     14 H12        -0.6087   -1.7636   -0.1989 H         1 ABC         0.0600 
     15 H2          1.6179   -2.2775   -1.0889 H         1 ABC         0.0600 
     16 H3          2.8446   -0.5427    0.1359 H         1 ABC         0.0600 
     17 H4          0.6342   -2.1271    1.1774 H         1 ABC         0.0000 
     18 HO7         0.7265    1.0058   -0.6490 H         1 ABC         0.4180 
     19 HO6         2.2827   -1.1553   -2.8223 H         1 ABC         0.4180 
     20 HO1        -0.8574   -0.1669    2.3692 H         1 ABC         0.3800 
     21 H21        -2.8748    2.4969    0.0693 H         1 ABC         0.3800 
@<TRIPOS>BOND
     1    1    2 1    
     2    1    7 1    
     3    1   13 1    
     4    1   14 1    
     5    2    3 1    
     6    3    4 1    
     7    3    5 2    
     8    3    6 1    
     9    4   20 1    
    10    6   21 1    
    11    7    8 1    
    12    7   12 1    
    13    7   15 1    
    14    8    9 1    
    15    8   11 1    
    16    8   16 1    
    17    9   10 2    
    18    9   17 1    
    19   11   18 1    
    20   12   19 1    
@<TRIPOS>SUBSTRUCTURE
     1 ABC         1 GROUP             0       ****    0 ROOT    
@<TRIPOS>MOLECULE
E4P
21   20    1
SMALL
USER_CHARGES


@<TRIPOS>ATOM
      1 C1         -0.8532   -1.3837    0.0934 C.3       1 ABC         0.1529 
      2 O4         -1.3132   -0.0827    0.0934 O.3       1 ABC        -0.4611 
      3 P1         -0.8149    0.8735    1.4591 P.3       1 ABC         1.2307 
      4 O1         -0.1043    2.2735    0.7090 O.3       1 ABC        -0.5682 
      5 O2          0.0425    0.1733    2.4550 O.2       1 ABC        -0.6661 
      6 O3         -2.3242    1.4886    2.0684 O.3       1 ABC        -0.5682 
      7 C2          0.6468   -1.3837    0.0934 C.3       1 ABC         0.2050 
      8 C3          1.1468   -0.6766   -1.1313 C.3       1 ABC         0.2050 
      9 C4          0.6468    0.7376   -1.1313 C.2       1 ABC         0.4500 
     10 O5          1.4089    1.7018   -1.1313 O.2       1 ABC        -0.4500 
     11 O7          0.6868   -1.3272   -2.2581 O.3       1 ABC        -0.6830 
     12 O6          1.1068   -2.6848    0.0934 O.3       1 ABC        -0.6830 
     13 H11        -1.2165   -1.8976   -0.7966 H         1 ABC         0.0600 
     14 H12        -1.2165   -1.8976    0.9834 H         1 ABC         0.0600 
     15 H2          1.0102   -0.8699    0.9834 H         1 ABC         0.0600 
     16 H3          2.2368   -0.6766   -1.1313 H         1 ABC         0.0600 
     17 H4         -0.4370    0.8537   -1.1313 H         1 ABC         0.0000 
     18 HO7         0.9732   -0.9222   -3.1264 H         1 ABC         0.4180 
     19 HO6         0.8205   -3.2343   -0.6915 H         1 ABC         0.4180 
     20 HO1         0.8238    2.4899    1.0119 H         1 ABC         0.3800 
     21 H21        -2.8932    1.9572    1.3927 H         1 ABC         0.3800 
@<TRIPOS>BOND
     1    1    2 1    
     2    1    7 1    
     3    1   13 1    
     4    1   14 1    
     5    2    3 1    
     6    3    4 1    
     7    3    5 2    
     8    3    6 1    
     9    4   20 1    
    10    6   21 1    
    11    7    8 1    
    12    7   12 1    
    13    7   15 1    
    14    8    9 1    
    15    8   11 1    
    16    8   16 1    
    17    9   10 2    
    18    9   17 1    
    19   11   18 1    
    20   12   19 1    
@<TRIPOS>SUBSTRUCTURE
     1 ABC         1 GROUP             0       ****    0 ROOT    
@<TRIPOS>MOLECULE
E4P
21   20    1
SMALL
USER_CHARGES


@<TRIPOS>ATOM
      1 C1         -1.2242   -0.6781    0.1910 C.3       1 ABC         0.1529 
      2 O4         -1.6842    0.6230    0.1910 O.3       1 ABC        -0.4611 
      3 P1         -1.1860    1.5791   -1.1747 P.3       1 ABC         1.2307 
      4 O1         -1.7574    3.1692   -0.7592 O.3       1 ABC        -0.5682 
      5 O2         -1.6151    1.0697   -2.5064 O.2       1 ABC        -0.6661 
      6 O3          0.5329    1.7156   -0.9413 O.3       1 ABC        -0.5682 
      7 C2          0.2758   -0.6781    0.1910 C.3       1 ABC         0.2050 
      8 C3          0.7758   -2.0923    0.1910 C.3       1 ABC         0.2050 
      9 C4          0.2758   -2.7994    1.4158 C.2       1 ABC         0.4500 
     10 O5         -0.7917   -2.5078    1.9506 O.2       1 ABC        -0.4500 
     11 O7          2.1558   -2.0923    0.1910 O.3       1 ABC        -0.6830 
     12 O6          0.7358   -0.0276    1.3178 O.3       1 ABC        -0.6830 
     13 H11        -1.5876   -1.1920   -0.6989 H         1 ABC         0.0600 
     14 H12        -1.5876   -1.1920    1.0810 H         1 ABC         0.0600 
     15 H2          0.6391   -0.1643   -0.6989 H         1 ABC         0.0600 
     16 H3          0.4124   -2.6062   -0.6989 H         1 ABC         0.0600 
     17 H4          0.9215   -3.5890    1.8002 H         1 ABC         0.0000 
     18 HO7         2.5784   -2.9986    0.1910 H         1 ABC         0.4180 
     19 HO6         1.3039    0.7758    1.1396 H         1 ABC         0.4180 
     20 HO1        -1.4643    3.5029    0.1367 H         1 ABC         0.3800 
     21 H21         1.0891    1.4391   -1.7250 H         1 ABC         0.3800 
@<TRIPOS>BOND
     1    1    2 1    
     2    1    7 1    
     3    1   13 1    
     4    1   14 1    
     5    2    3 1    
     6    3    4 1    
     7    3    5 2    
     8    3    6 1    
     9    4   20 1    
    10    6   21 1    
    11    7    8 1    
    12    7   12 1    
    13    7   15 1    
    14    8    9 1    
    15    8   11 1    
    16    8   16 1    
    17    9   10 2    
    18    9   17 1    
    19   11   18 1    
    20   12   19 1    
@<TRIPOS>SUBSTRUCTURE
     1 ABC         1 GROUP             0       ****    0 ROOT    
@<TRIPOS>MOLECULE
E4P
21   20    1
SMALL
USER_CHARGES


@<TRIPOS>ATOM
      1 C1         -1.0467   -1.3204    0.1196 C.3       1 ABC         0.1529 
      2 O4         -1.5067   -0.0193    0.1196 O.3       1 ABC        -0.4611 
      3 P1         -1.0084    0.9368    1.4853 P.3       1 ABC         1.2307 
      4 O1          0.7105    1.0733    1.2520 O.3       1 ABC        -0.5682 
      5 O2         -1.4375    0.4275    2.8171 O.2       1 ABC        -0.6661 
      6 O3         -1.5798    2.5270    1.0699 O.3       1 ABC        -0.5682 
      7 C2          0.4533   -1.3204    0.1196 C.3       1 ABC         0.2050 
      8 C3          0.9533   -0.6133   -1.1051 C.3       1 ABC         0.2050 
      9 C4          0.4533    0.8010   -1.1051 C.2       1 ABC         0.4500 
     10 O5          1.2154    1.7651   -1.1051 O.2       1 ABC        -0.4500 
     11 O7          0.4933   -1.2638   -2.2319 O.3       1 ABC        -0.6830 
     12 O6          0.9133   -2.6214    0.1196 O.3       1 ABC        -0.6830 
     13 H11        -1.4100   -1.8342   -0.7703 H         1 ABC         0.0600 
     14 H12        -1.4100   -1.8342    1.0096 H         1 ABC         0.0600 
     15 H2          0.8167   -0.8065    1.0096 H         1 ABC         0.0600 
     16 H3          2.0433   -0.6133   -1.1051 H         1 ABC         0.0600 
     17 H4         -0.6305    0.9171   -1.1051 H         1 ABC         0.0000 
     18 HO7         0.7797   -0.8588   -3.1002 H         1 ABC         0.4180 
     19 HO6         0.6270   -3.1709   -0.6652 H         1 ABC         0.4180 
     20 HO1         1.2666    0.7968    2.0357 H         1 ABC         0.3800 
     21 H21        -1.2867    2.8607    0.1740 H         1 ABC         0.3800 
@<TRIPOS>BOND
     1    1    2 1    
     2    1    7 1    
     3    1   13 1    
     4    1   14 1    
     5    2    3 1    
     6    3    4 1    
     7    3    5 2    
     8    3    6 1    
     9    4   20 1    
    10    6   21 1    
    11    7    8 1    
    12    7   12 1    
    13    7   15 1    
    14    8    9 1    
    15    8   11 1    
    16    8   16 1    
    17    9   10 2    
    18    9   17 1    
    19   11   18 1    
    20   12   19 1    
@<TRIPOS>SUBSTRUCTURE
     1 ABC         1 GROUP             0       ****    0 ROOT    
@<TRIPOS>MOLECULE
E4P
21   20    1
SMALL
USER_CHARGES


@<TRIPOS>ATOM
      1 C1         -0.9265   -1.2806    0.2803 C.3       1 ABC         0.1529 
      2 O4         -1.3865    0.0205    0.2803 O.3       1 ABC        -0.4611 
      3 P1         -0.8882    0.9766   -1.0854 P.3       1 ABC         1.2307 
      4 O1         -1.7161    0.2127   -2.4116 O.3       1 ABC        -0.5682 
      5 O2          0.5823    1.1389   -1.2538 O.2       1 ABC        -0.6661 
      6 O3         -1.7865    2.4512   -0.8701 O.3       1 ABC        -0.5682 
      7 C2          0.5735   -1.2806    0.2803 C.3       1 ABC         0.2050 
      8 C3          1.0735   -0.5735    1.5050 C.3       1 ABC         0.2050 
      9 C4          2.5735   -0.5735    1.5050 C.2       1 ABC         0.4500 
     10 O5          3.2285    0.3271    0.9851 O.2       1 ABC        -0.4500 
     11 O7          0.6135   -1.2240    2.6318 O.3       1 ABC        -0.6830 
     12 O6          1.0335   -0.6301   -0.8465 O.3       1 ABC        -0.6830 
     13 H11        -1.2898   -1.7944   -0.6097 H         1 ABC         0.0600 
     14 H12        -1.2898   -1.7944    1.1703 H         1 ABC         0.0600 
     15 H2          0.9368   -2.3083    0.2803 H         1 ABC         0.0600 
     16 H3          0.7102    0.4542    1.5050 H         1 ABC         0.0600 
     17 H4          3.0443   -1.4249    1.9966 H         1 ABC         0.0000 
     18 HO7         0.8999   -0.8190    3.5001 H         1 ABC         0.4180 
     19 HO6         1.6016   -1.1861   -1.4532 H         1 ABC         0.4180 
     20 HO1        -2.7031    0.1080   -2.2896 H         1 ABC         0.3800 
     21 H21        -2.7731    2.3325   -0.7578 H         1 ABC         0.3800 
@<TRIPOS>BOND
     1    1    2 1    
     2    1    7 1    
     3    1   13 1    
     4    1   14 1    
     5    2    3 1    
     6    3    4 1    
     7    3    5 2    
     8    3    6 1    
     9    4   20 1    
    10    6   21 1    
    11    7    8 1    
    12    7   12 1    
    13    7   15 1    
    14    8    9 1    
    15    8   11 1    
    16    8   16 1    
    17    9   10 2    
    18    9   17 1    
    19   11   18 1    
    20   12   19 1    
@<TRIPOS>SUBSTRUCTURE
     1 ABC         1 GROUP             0       ****    0 ROOT    
@<TRIPOS>MOLECULE
E4P
21   20    1
SMALL
USER_CHARGES


@<TRIPOS>ATOM
      1 C1         -1.0247   -1.1492    0.3033 C.3       1 ABC         0.1529 
      2 O4         -1.4847    0.1519    0.3033 O.3       1 ABC        -0.4611 
      3 P1         -0.9865    1.1080   -1.0624 P.3       1 ABC         1.2307 
      4 O1         -1.8143    0.3441   -2.3886 O.3       1 ABC        -0.5682 
      5 O2          0.4841    1.2703   -1.2308 O.2       1 ABC        -0.6661 
      6 O3         -1.8847    2.5826   -0.8471 O.3       1 ABC        -0.5682 
      7 C2          0.4753   -1.1492    0.3033 C.3       1 ABC         0.2050 
      8 C3          0.9753   -0.4421    1.5281 C.3       1 ABC         0.2050 
      9 C4          2.4753   -0.4421    1.5281 C.2       1 ABC         0.4500 
     10 O5          3.1303   -1.4820    1.5281 O.2       1 ABC        -0.4500 
     11 O7          0.5153   -1.0926    2.6548 O.3       1 ABC        -0.6830 
     12 O6          0.9353   -0.4987   -0.8235 O.3       1 ABC        -0.6830 
     13 H11        -1.3881   -1.6630   -0.5867 H         1 ABC         0.0600 
     14 H12        -1.3881   -1.6630    1.1933 H         1 ABC         0.0600 
     15 H2          0.8386   -2.1769    0.3033 H         1 ABC         0.0600 
     16 H3          0.6119    0.5856    1.5281 H         1 ABC         0.0600 
     17 H4          2.9460    0.5410    1.5281 H         1 ABC         0.0000 
     18 HO7         0.8016   -0.6877    3.5231 H         1 ABC         0.4180 
     19 HO6         1.5034   -1.0547   -1.4302 H         1 ABC         0.4180 
     20 HO1        -1.2294    0.0777   -3.1547 H         1 ABC         0.3800 
     21 H21        -2.8713    2.4638   -0.7348 H         1 ABC         0.3800 
@<TRIPOS>BOND
     1    1    2 1    
     2    1    7 1    
     3    1   13 1    
     4    1   14 1    
     5    2    3 1    
     6    3    4 1    
     7    3    5 2    
     8    3    6 1    
     9    4   20 1    
    10    6   21 1    
    11    7    8 1    
    12    7   12 1    
    13    7   15 1    
    14    8    9 1    
    15    8   11 1    
    16    8   16 1    
    17    9   10 2    
    18    9   17 1    
    19   11   18 1    
    20   12   19 1    
@<TRIPOS>SUBSTRUCTURE
     1 ABC         1 GROUP             0       ****    0 ROOT    
@<TRIPOS>MOLECULE
E4P
21   20    1
SMALL
USER_CHARGES


@<TRIPOS>ATOM
      1 C1          0.2015   -1.1655   -0.2666 C.3       1 ABC         0.1529 
      2 O4         -0.2585    0.1356   -0.2666 O.3       1 ABC        -0.4611 
      3 P1         -1.9904    0.3033   -0.2666 P.3       1 ABC         1.2307 
      4 O1         -2.2748    1.3515    1.0928 O.3       1 ABC        -0.5682 
      5 O2         -2.7593   -0.9718   -0.2666 O.2       1 ABC        -0.6661 
      6 O3         -2.2748    1.3515   -1.6260 O.3       1 ABC        -0.5682 
      7 C2          1.7015   -1.1655   -0.2666 C.3       1 ABC         0.2050 
      8 C3          2.2015   -0.4584    0.9581 C.3       1 ABC         0.2050 
      9 C4          1.7015   -1.1655    2.1829 C.2       1 ABC         0.4500 
     10 O5          0.6341   -1.7744    2.1978 O.2       1 ABC        -0.4500 
     11 O7          1.7415    0.8427    0.9581 O.3       1 ABC        -0.6830 
     12 O6          2.1615   -0.5149   -1.3934 O.3       1 ABC        -0.6830 
     13 H11        -0.1619   -1.6793   -1.1566 H         1 ABC         0.0600 
     14 H12        -0.1619   -1.6793    0.6234 H         1 ABC         0.0600 
     15 H2          2.0648   -2.1931   -0.2666 H         1 ABC         0.0600 
     16 H3          3.2915   -0.4584    0.9581 H         1 ABC         0.0600 
     17 H4          2.3472   -1.1036    3.0588 H         1 ABC         0.0000 
     18 HO7         1.1734    1.0901    0.1733 H         1 ABC         0.4180 
     19 HO6         2.7296   -1.0710   -2.0001 H         1 ABC         0.4180 
     20 HO1        -1.7543    2.2053    1.0843 H         1 ABC         0.3800 
     21 H21        -2.9336    1.0069   -2.2948 H         1 ABC         0.3800 
@<TRIPOS>BOND
     1    1    2 1    
     2    1    7 1    
     3    1   13 1    
     4    1   14 1    
     5    2    3 1    
     6    3    4 1    
     7    3    5 2    
     8    3    6 1    
     9    4   20 1    
    10    6   21 1    
    11    7    8 1    
    12    7   12 1    
    13    7   15 1    
    14    8    9 1    
    15    8   11 1    
    16    8   16 1    
    17    9   10 2    
    18    9   17 1    
    19   11   18 1    
    20   12   19 1    
@<TRIPOS>SUBSTRUCTURE
     1 ABC         1 GROUP             0       ****    0 ROOT    
@<TRIPOS>MOLECULE
E4P
21   20    1
SMALL
USER_CHARGES


@<TRIPOS>ATOM
      1 C1         -0.1617   -1.1877    0.4010 C.3       1 ABC         0.1529 
      2 O4         -0.6217    0.1134    0.4010 O.3       1 ABC        -0.4611 
      3 P1         -1.6102    0.5438   -0.9647 P.3       1 ABC         1.2307 
      4 O1         -1.8384    2.2553   -0.7495 O.3       1 ABC        -0.5682 
      5 O2         -2.8559   -0.2542   -1.1332 O.2       1 ABC        -0.6661 
      6 O3         -0.4862    0.4700   -2.2909 O.3       1 ABC        -0.5682 
      7 C2          1.3383   -1.1877    0.4010 C.3       1 ABC         0.2050 
      8 C3          1.8383   -0.4806    1.6257 C.3       1 ABC         0.2050 
      9 C4          1.3383   -1.1877    2.8504 C.2       1 ABC         0.4500 
     10 O5          0.2709   -1.7967    2.8653 O.2       1 ABC        -0.4500 
     11 O7          1.3783    0.8205    1.6257 O.3       1 ABC        -0.6830 
     12 O6          1.7983   -0.5372   -0.7258 O.3       1 ABC        -0.6830 
     13 H11        -0.5250   -1.7015   -0.4890 H         1 ABC         0.0600 
     14 H12        -0.5250   -1.7015    1.2909 H         1 ABC         0.0600 
     15 H2          1.7016   -2.2154    0.4010 H         1 ABC         0.0600 
     16 H3          2.9283   -0.4806    1.6257 H         1 ABC         0.0600 
     17 H4          1.9841   -1.1258    3.7264 H         1 ABC         0.0000 
     18 HO7         0.8102    1.0679    0.8408 H         1 ABC         0.4180 
     19 HO6         2.3664   -1.0932   -1.3325 H         1 ABC         0.4180 
     20 HO1        -2.7911    2.5589   -0.7572 H         1 ABC         0.3800 
     21 H21        -0.7737   -0.1048   -3.0571 H         1 ABC         0.3800 
@<TRIPOS>BOND
     1    1    2 1    
     2    1    7 1    
     3    1   13 1    
     4    1   14 1    
     5    2    3 1    
     6    3    4 1    
     7    3    5 2    
     8    3    6 1    
     9    4   20 1    
    10    6   21 1    
    11    7    8 1    
    12    7   12 1    
    13    7   15 1    
    14    8    9 1    
    15    8   11 1    
    16    8   16 1    
    17    9   10 2    
    18    9   17 1    
    19   11   18 1    
    20   12   19 1    
@<TRIPOS>SUBSTRUCTURE
     1 ABC         1 GROUP             0       ****    0 ROOT    
@<TRIPOS>MOLECULE
E4P
21   20    1
SMALL
USER_CHARGES


@<TRIPOS>ATOM
      1 C1         -0.8775   -1.4083    0.2516 C.3       1 ABC         0.1529 
      2 O4         -1.3375   -0.1072    0.2516 O.3       1 ABC        -0.4611 
      3 P1         -0.8392    0.8489   -1.1141 P.3       1 ABC         1.2307 
      4 O1         -1.6670    0.0850   -2.4403 O.3       1 ABC        -0.5682 
      5 O2          0.6313    1.0112   -1.2826 O.2       1 ABC        -0.6661 
      6 O3         -1.7375    2.3235   -0.8988 O.3       1 ABC        -0.5682 
      7 C2          0.6225   -1.4083    0.2516 C.3       1 ABC         0.2050 
      8 C3          1.1225   -0.7012    1.4763 C.3       1 ABC         0.2050 
      9 C4          0.6225   -1.4083    2.7011 C.2       1 ABC         0.4500 
     10 O5          1.3846   -1.8904    3.5361 O.2       1 ABC        -0.4500 
     11 O7          0.6625    0.5999    1.4763 O.3       1 ABC        -0.6830 
     12 O6          1.0825   -0.7577   -0.8752 O.3       1 ABC        -0.6830 
     13 H11        -1.2408   -1.9221   -0.6384 H         1 ABC         0.0600 
     14 H12        -1.2408   -1.9221    1.1416 H         1 ABC         0.0600 
     15 H2          0.9859   -2.4359    0.2516 H         1 ABC         0.0600 
     16 H3          2.2125   -0.7012    1.4763 H         1 ABC         0.0600 
     17 H4         -0.4613   -1.4663    2.8017 H         1 ABC         0.0000 
     18 HO7         0.9489    1.1494    2.2612 H         1 ABC         0.4180 
     19 HO6         1.6506   -1.3138   -1.4819 H         1 ABC         0.4180 
     20 HO1        -1.0822   -0.1813   -3.2064 H         1 ABC         0.3800 
     21 H21        -1.1873    3.1585   -0.9066 H         1 ABC         0.3800 
@<TRIPOS>BOND
     1    1    2 1    
     2    1    7 1    
     3    1   13 1    
     4    1   14 1    
     5    2    3 1    
     6    3    4 1    
     7    3    5 2    
     8    3    6 1    
     9    4   20 1    
    10    6   21 1    
    11    7    8 1    
    12    7   12 1    
    13    7   15 1    
    14    8    9 1    
    15    8   11 1    
    16    8   16 1    
    17    9   10 2    
    18    9   17 1    
    19   11   18 1    
    20   12   19 1    
@<TRIPOS>SUBSTRUCTURE
     1 ABC         1 GROUP             0       ****    0 ROOT    
@<TRIPOS>MOLECULE
E4P
21   20    1
SMALL
USER_CHARGES


@<TRIPOS>ATOM
      1 C1         -0.9179   -0.6027   -0.6625 C.3       1 ABC         0.1529 
      2 O4         -1.3779    0.6984   -0.6625 O.3       1 ABC        -0.4611 
      3 P1         -0.8796    1.6545    0.7032 P.3       1 ABC         1.2307 
      4 O1         -1.7779    3.1291    0.4880 O.3       1 ABC        -0.5682 
      5 O2          0.5909    1.8168    0.8717 O.2       1 ABC        -0.6661 
      6 O3         -1.7075    0.8906    2.0294 O.3       1 ABC        -0.5682 
      7 C2          0.5821   -0.6027   -0.6625 C.3       1 ABC         0.2050 
      8 C3          1.0821   -2.0169   -0.6625 C.3       1 ABC         0.2050 
      9 C4          2.5821   -2.0169   -0.6625 C.2       1 ABC         0.4500 
     10 O5          3.2371   -1.4969   -1.5630 O.2       1 ABC        -0.4500 
     11 O7          0.6221   -2.6674   -1.7892 O.3       1 ABC        -0.6830 
     12 O6          1.0421    0.0479    0.4643 O.3       1 ABC        -0.6830 
     13 H11        -1.2813   -1.1165   -1.5524 H         1 ABC         0.0600 
     14 H12        -1.2813   -1.1165    0.2275 H         1 ABC         0.0600 
     15 H2          0.9454   -0.0888   -1.5524 H         1 ABC         0.0600 
     16 H3          0.7187   -2.5307    0.2275 H         1 ABC         0.0600 
     17 H4          3.0528   -2.5084    0.1889 H         1 ABC         0.0000 
     18 HO7         0.0540   -2.1114   -2.3959 H         1 ABC         0.4180 
     19 HO6         0.7557   -0.3571    1.3326 H         1 ABC         0.4180 
     20 HO1        -2.7645    3.0104    0.3757 H         1 ABC         0.3800 
     21 H21        -1.1226    0.6243    2.7956 H         1 ABC         0.3800 
@<TRIPOS>BOND
     1    1    2 1    
     2    1    7 1    
     3    1   13 1    
     4    1   14 1    
     5    2    3 1    
     6    3    4 1    
     7    3    5 2    
     8    3    6 1    
     9    4   20 1    
    10    6   21 1    
    11    7    8 1    
    12    7   12 1    
    13    7   15 1    
    14    8    9 1    
    15    8   11 1    
    16    8   16 1    
    17    9   10 2    
    18    9   17 1    
    19   11   18 1    
    20   12   19 1    
@<TRIPOS>SUBSTRUCTURE
     1 ABC         1 GROUP             0       ****    0 ROOT    
@<TRIPOS>MOLECULE
E4P
21   20    1
SMALL
USER_CHARGES


@<TRIPOS>ATOM
      1 C1         -0.7815   -0.5809   -0.5809 C.3       1 ABC         0.1529 
      2 O4         -1.2415    0.7201   -0.5809 O.3       1 ABC        -0.4611 
      3 P1         -0.7432    1.6763    0.7848 P.3       1 ABC         1.2307 
      4 O1         -0.0326    3.0763    0.0348 O.3       1 ABC        -0.5682 
      5 O2          0.1142    0.9761    1.7807 O.2       1 ABC        -0.6661 
      6 O3         -2.2525    2.2914    1.3941 O.3       1 ABC        -0.5682 
      7 C2          0.7185   -0.5809   -0.5809 C.3       1 ABC         0.2050 
      8 C3          1.2185   -1.9952   -0.5809 C.3       1 ABC         0.2050 
      9 C4          0.7185   -2.7023   -1.8056 C.2       1 ABC         0.4500 
     10 O5          0.9904   -3.8776   -2.0402 O.2       1 ABC        -0.4500 
     11 O7          0.7585   -2.6457    0.5459 O.3       1 ABC        -0.6830 
     12 O6          1.1785    0.0696    0.5459 O.3       1 ABC        -0.6830 
     13 H11        -1.1448   -1.0948   -1.4708 H         1 ABC         0.0600 
     14 H12        -1.1448   -1.0948    0.3091 H         1 ABC         0.0600 
     15 H2          1.0818   -0.0671   -1.4708 H         1 ABC         0.0600 
     16 H3          2.3085   -1.9952   -0.5809 H         1 ABC         0.0600 
     17 H4          0.0981   -2.1049   -2.4738 H         1 ABC         0.0000 
     18 HO7         1.0449   -3.6002    0.6293 H         1 ABC         0.4180 
     19 HO6         1.7466    0.8730    0.3677 H         1 ABC         0.4180 
     20 HO1        -0.6156    3.5399   -0.6325 H         1 ABC         0.3800 
     21 H21        -2.8216    2.7600    0.7184 H         1 ABC         0.3800 
@<TRIPOS>BOND
     1    1    2 1    
     2    1    7 1    
     3    1   13 1    
     4    1   14 1    
     5    2    3 1    
     6    3    4 1    
     7    3    5 2    
     8    3    6 1    
     9    4   20 1    
    10    6   21 1    
    11    7    8 1    
    12    7   12 1    
    13    7   15 1    
    14    8    9 1    
    15    8   11 1    
    16    8   16 1    
    17    9   10 2    
    18    9   17 1    
    19   11   18 1    
    20   12   19 1    
@<TRIPOS>SUBSTRUCTURE
     1 ABC         1 GROUP             0       ****    0 ROOT    
@<TRIPOS>MOLECULE
E4P
21   20    1
SMALL
USER_CHARGES


@<TRIPOS>ATOM
      1 C1         -0.7641   -0.6554   -0.7909 C.3       1 ABC         0.1529 
      2 O4         -1.2241    0.6457   -0.7909 O.3       1 ABC        -0.4611 
      3 P1         -0.7259    1.6018    0.5748 P.3       1 ABC         1.2307 
      4 O1         -0.0153    3.0018   -0.1753 O.3       1 ABC        -0.5682 
      5 O2          0.1315    0.9017    1.5707 O.2       1 ABC        -0.6661 
      6 O3         -2.2351    2.2170    1.1841 O.3       1 ABC        -0.5682 
      7 C2          0.7359   -0.6554   -0.7909 C.3       1 ABC         0.2050 
      8 C3          1.2359   -2.0696   -0.7909 C.3       1 ABC         0.2050 
      9 C4          0.7359   -2.7767   -2.0156 C.2       1 ABC         0.4500 
     10 O5         -0.3316   -3.3857   -2.0305 O.2       1 ABC        -0.4500 
     11 O7          0.7759   -2.7202    0.3359 O.3       1 ABC        -0.6830 
     12 O6          1.1959   -0.0049    0.3359 O.3       1 ABC        -0.6830 
     13 H11        -1.1275   -1.1692   -1.6809 H         1 ABC         0.0600 
     14 H12        -1.1275   -1.1692    0.0991 H         1 ABC         0.0600 
     15 H2          1.0992   -0.1416   -1.6809 H         1 ABC         0.0600 
     16 H3          2.3259   -2.0696   -0.7909 H         1 ABC         0.0600 
     17 H4          1.3816   -2.7148   -2.8916 H         1 ABC         0.0000 
     18 HO7         0.2077   -2.1641    0.9426 H         1 ABC         0.4180 
     19 HO6         1.7640    0.7986    0.1577 H         1 ABC         0.4180 
     20 HO1         0.9128    3.2183    0.1276 H         1 ABC         0.3800 
     21 H21        -2.3992    2.0473    2.1558 H         1 ABC         0.3800 
@<TRIPOS>BOND
     1    1    2 1    
     2    1    7 1    
     3    1   13 1    
     4    1   14 1    
     5    2    3 1    
     6    3    4 1    
     7    3    5 2    
     8    3    6 1    
     9    4   20 1    
    10    6   21 1    
    11    7    8 1    
    12    7   12 1    
    13    7   15 1    
    14    8    9 1    
    15    8   11 1    
    16    8   16 1    
    17    9   10 2    
    18    9   17 1    
    19   11   18 1    
    20   12   19 1    
@<TRIPOS>SUBSTRUCTURE
     1 ABC         1 GROUP             0       ****    0 ROOT    
@<TRIPOS>MOLECULE
E4P
21   20    1
SMALL
USER_CHARGES


@<TRIPOS>ATOM
      1 C1         -0.9587   -0.7736   -0.8078 C.3       1 ABC         0.1529 
      2 O4         -1.4187    0.5275   -0.8078 O.3       1 ABC        -0.4611 
      3 P1         -0.9205    1.4836    0.5579 P.3       1 ABC         1.2307 
      4 O1         -0.2099    2.8836   -0.1922 O.3       1 ABC        -0.5682 
      5 O2         -0.0631    0.7835    1.5538 O.2       1 ABC        -0.6661 
      6 O3         -2.4297    2.0988    1.1672 O.3       1 ABC        -0.5682 
      7 C2          0.5413   -0.7736   -0.8078 C.3       1 ABC         0.2050 
      8 C3          1.0413   -2.1878   -0.8078 C.3       1 ABC         0.2050 
      9 C4          0.5413   -2.8949    0.4169 C.2       1 ABC         0.4500 
     10 O5         -0.1673   -2.3371    1.2519 O.2       1 ABC        -0.4500 
     11 O7          2.4213   -2.1878   -0.8078 O.3       1 ABC        -0.6830 
     12 O6          1.0013   -0.1231    0.3189 O.3       1 ABC        -0.6830 
     13 H11        -1.3221   -1.2874   -1.6978 H         1 ABC         0.0600 
     14 H12        -1.3221   -1.2874    0.0821 H         1 ABC         0.0600 
     15 H2          0.9046   -0.2598   -1.6978 H         1 ABC         0.0600 
     16 H3          0.6779   -2.7016   -1.6978 H         1 ABC         0.0600 
     17 H4          0.8478   -3.9361    0.5175 H         1 ABC         0.0000 
     18 HO7         2.8439   -3.0941   -0.8078 H         1 ABC         0.4180 
     19 HO6         1.5694    0.6804    0.1407 H         1 ABC         0.4180 
     20 HO1        -0.7928    3.3473   -0.8595 H         1 ABC         0.3800 
     21 H21        -2.9988    2.5673    0.4914 H         1 ABC         0.3800 
@<TRIPOS>BOND
     1    1    2 1    
     2    1    7 1    
     3    1   13 1    
     4    1   14 1    
     5    2    3 1    
     6    3    4 1    
     7    3    5 2    
     8    3    6 1    
     9    4   20 1    
    10    6   21 1    
    11    7    8 1    
    12    7   12 1    
    13    7   15 1    
    14    8    9 1    
    15    8   11 1    
    16    8   16 1    
    17    9   10 2    
    18    9   17 1    
    19   11   18 1    
    20   12   19 1    
@<TRIPOS>SUBSTRUCTURE
     1 ABC         1 GROUP             0       ****    0 ROOT    
@<TRIPOS>MOLECULE
E4P
21   20    1
SMALL
USER_CHARGES


@<TRIPOS>ATOM
      1 C1         -1.1218   -1.3598   -0.2868 C.3       1 ABC         0.1529 
      2 O4         -1.5818   -0.0587   -0.2868 O.3       1 ABC        -0.4611 
      3 P1         -1.0835    0.8974    1.0789 P.3       1 ABC         1.2307 
      4 O1         -0.3729    2.2974    0.3288 O.3       1 ABC        -0.5682 
      5 O2         -0.2261    0.1973    2.0748 O.2       1 ABC        -0.6661 
      6 O3         -2.5928    1.5126    1.6882 O.3       1 ABC        -0.5682 
      7 C2          0.3782   -1.3598   -0.2868 C.3       1 ABC         0.2050 
      8 C3          0.8782   -0.6527   -1.5116 C.3       1 ABC         0.2050 
      9 C4          2.3782   -0.6527   -1.5116 C.2       1 ABC         0.4500 
     10 O5          3.0332   -0.6527   -2.5515 O.2       1 ABC        -0.4500 
     11 O7          0.4182    0.6484   -1.5116 O.3       1 ABC        -0.6830 
     12 O6          0.8382   -2.6609   -0.2868 O.3       1 ABC        -0.6830 
     13 H11        -1.4851   -1.8736   -1.1768 H         1 ABC         0.0600 
     14 H12        -1.4851   -1.8736    0.6031 H         1 ABC         0.0600 
     15 H2          0.7415   -0.8460    0.6031 H         1 ABC         0.0600 
     16 H3          0.5149   -1.1665   -2.4016 H         1 ABC         0.0600 
     17 H4          2.8490   -0.6527   -0.5285 H         1 ABC         0.0000 
     18 HO7        -0.1499    0.8958   -0.7267 H         1 ABC         0.4180 
     19 HO6         1.4063   -2.9083    0.4981 H         1 ABC         0.4180 
     20 HO1         0.5552    2.5139    0.6317 H         1 ABC         0.3800 
     21 H21        -2.7569    1.3429    2.6599 H         1 ABC         0.3800 
@<TRIPOS>BOND
     1    1    2 1    
     2    1    7 1    
     3    1   13 1    
     4    1   14 1    
     5    2    3 1    
     6    3    4 1    
     7    3    5 2    
     8    3    6 1    
     9    4   20 1    
    10    6   21 1    
    11    7    8 1    
    12    7   12 1    
    13    7   15 1    
    14    8    9 1    
    15    8   11 1    
    16    8   16 1    
    17    9   10 2    
    18    9   17 1    
    19   11   18 1    
    20   12   19 1    
@<TRIPOS>SUBSTRUCTURE
     1 ABC         1 GROUP             0       ****    0 ROOT    
@<TRIPOS>MOLECULE
E4P
21   20    1
SMALL
USER_CHARGES


@<TRIPOS>ATOM
      1 C1         -0.6974   -1.1402   -0.1827 C.3       1 ABC         0.1529 
      2 O4         -1.1574    0.1609   -0.1827 O.3       1 ABC        -0.4611 
      3 P1         -0.6591    1.1170    1.1830 P.3       1 ABC         1.2307 
      4 O1         -1.5574    2.5915    0.9677 O.3       1 ABC        -0.5682 
      5 O2          0.8114    1.2793    1.3514 O.2       1 ABC        -0.6661 
      6 O3         -1.4869    0.3531    2.5092 O.3       1 ABC        -0.5682 
      7 C2          0.8026   -1.1402   -0.1827 C.3       1 ABC         0.2050 
      8 C3          1.3026   -0.4331   -1.4075 C.3       1 ABC         0.2050 
      9 C4          0.8026    0.9811   -1.4075 C.2       1 ABC         0.4500 
     10 O5          1.0745    1.7720   -2.3080 O.2       1 ABC        -0.4500 
     11 O7          0.8426   -1.0837   -2.5342 O.3       1 ABC        -0.6830 
     12 O6          1.2626   -2.4413   -0.1827 O.3       1 ABC        -0.6830 
     13 H11        -1.0607   -1.6541   -1.0727 H         1 ABC         0.0600 
     14 H12        -1.0607   -1.6541    0.7073 H         1 ABC         0.0600 
     15 H2          1.1660   -0.6264    0.7073 H         1 ABC         0.0600 
     16 H3          2.3926   -0.4331   -1.4075 H         1 ABC         0.0600 
     17 H4          0.1823    1.2611   -0.5561 H         1 ABC         0.0000 
     18 HO7         0.2745   -1.8871   -2.3560 H         1 ABC         0.4180 
     19 HO6         1.8307   -2.6887    0.6022 H         1 ABC         0.4180 
     20 HO1        -2.5440    2.4728    0.8554 H         1 ABC         0.3800 
     21 H21        -0.9021    0.0867    3.2753 H         1 ABC         0.3800 
@<TRIPOS>BOND
     1    1    2 1    
     2    1    7 1    
     3    1   13 1    
     4    1   14 1    
     5    2    3 1    
     6    3    4 1    
     7    3    5 2    
     8    3    6 1    
     9    4   20 1    
    10    6   21 1    
    11    7    8 1    
    12    7   12 1    
    13    7   15 1    
    14    8    9 1    
    15    8   11 1    
    16    8   16 1    
    17    9   10 2    
    18    9   17 1    
    19   11   18 1    
    20   12   19 1    
@<TRIPOS>SUBSTRUCTURE
     1 ABC         1 GROUP             0       ****    0 ROOT    
